<?xml version="1.0" encoding="UTF-8"?>

<!-- generated on 2024-10-01 21:50:02.054359 by osmWebWizard.py v1_20_0+0002-343658e7c64
<configuration>
    <net-file value="E:\ACER\Downloads\rl-environment-main\rl-environment-main\2024-10-01-20-21-00\2024-10-01-21-49-55\osm.net.xml.gz"/>
    <output-trip-file value="E:\ACER\Downloads\rl-environment-main\rl-environment-main\2024-10-01-20-21-00\2024-10-01-21-49-55\osm.motorcycle.trips.xml"/>
    <route-file value="E:\ACER\Downloads\rl-environment-main\rl-environment-main\2024-10-01-20-21-00\2024-10-01-21-49-55\osm.motorcycle.rou.xml"/>
    <prefix value="motorcycle"/>
    <trip-attributes value="departLane=&quot;best&quot;"/>
    <fringe-start-attributes value="departSpeed=&quot;max&quot;"/>
    <vehicle-class value="motorcycle"/>
    <fringe-factor value="5"/>
    <vclass value="motorcycle"/>
    <via-edge-types value="highway.motorway,highway.motorway_link,highway.trunk_link,highway.primary_link,highway.secondary_link,highway.tertiary_link"/>
    <max-distance value="1200.0"/>
    <remove-loops value="True"/>
    <validate value="True"/>
    <insertion-density value="15.0"/>
</configuration>
-->

<!-- generated on 2024-10-01 21:50:01 by Eclipse SUMO duarouter Version 1.20.0
<configuration xmlns:xsi="http://www.w3.org/2001/XMLSchema-instance" xsi:noNamespaceSchemaLocation="http://sumo.dlr.de/xsd/duarouterConfiguration.xsd">

    <input>
        <net-file value="E:\ACER\Downloads\rl-environment-main\rl-environment-main\2024-10-01-20-21-00\2024-10-01-21-49-55\osm.net.xml.gz"/>
        <route-files value="E:\ACER\Downloads\rl-environment-main\rl-environment-main\2024-10-01-20-21-00\2024-10-01-21-49-55\osm.motorcycle.trips.xml"/>
    </input>

    <output>
        <output-file value="E:\ACER\Downloads\rl-environment-main\rl-environment-main\2024-10-01-20-21-00\2024-10-01-21-49-55\osm.motorcycle.trips.xml.tmp"/>
        <alternatives-output value="NUL"/>
        <write-trips value="true"/>
    </output>

    <processing>
        <remove-loops value="true"/>
    </processing>

    <time>
        <begin value="0.0"/>
        <end value="3600.0"/>
    </time>

    <report>
        <no-warnings value="true"/>
        <ignore-errors value="true"/>
        <no-step-log value="true"/>
    </report>

</configuration>
-->

<routes xmlns:xsi="http://www.w3.org/2001/XMLSchema-instance" xsi:noNamespaceSchemaLocation="http://sumo.dlr.de/xsd/routes_file.xsd">
    <vType id="motorcycle_motorcycle" vClass="motorcycle"/>
    <trip id="motorcycle2" type="motorcycle_motorcycle" depart="60.49" departLane="best" departSpeed="max" from="648697035" to="591357319"/>
    <trip id="motorcycle4" type="motorcycle_motorcycle" depart="120.97" departLane="best" departSpeed="max" from="226834863#0" to="1118309782"/>
    <trip id="motorcycle6" type="motorcycle_motorcycle" depart="181.46" departLane="best" from="1118309782" to="193289326"/>
    <trip id="motorcycle7" type="motorcycle_motorcycle" depart="211.70" departLane="best" departSpeed="max" from="591355894" to="416294069#1"/>
    <trip id="motorcycle10" type="motorcycle_motorcycle" depart="302.43" departLane="best" departSpeed="max" from="648697035" to="591357319"/>
    <trip id="motorcycle13" type="motorcycle_motorcycle" depart="393.16" departLane="best" departSpeed="max" from="1126627065" to="1132401300"/>
    <trip id="motorcycle15" type="motorcycle_motorcycle" depart="453.65" departLane="best" departSpeed="max" from="648697035" to="591357319"/>
    <trip id="motorcycle17" type="motorcycle_motorcycle" depart="514.13" departLane="best" from="215507255" to="416294069#1"/>
    <trip id="motorcycle18" type="motorcycle_motorcycle" depart="544.38" departLane="best" departSpeed="max" from="648697035" to="416294069#1"/>
    <trip id="motorcycle20" type="motorcycle_motorcycle" depart="604.86" departLane="best" from="591355896" to="1118309782"/>
    <trip id="motorcycle23" type="motorcycle_motorcycle" depart="695.59" departLane="best" departSpeed="max" from="1126627065" to="215507255"/>
    <trip id="motorcycle24" type="motorcycle_motorcycle" depart="725.83" departLane="best" departSpeed="max" from="591355894" to="231882049"/>
    <trip id="motorcycle27" type="motorcycle_motorcycle" depart="816.56" departLane="best" departSpeed="max" from="591355894" to="416294069#1"/>
    <trip id="motorcycle28" type="motorcycle_motorcycle" depart="846.81" departLane="best" from="1132401297" to="591357319"/>
    <trip id="motorcycle29" type="motorcycle_motorcycle" depart="877.05" departLane="best" departSpeed="max" from="1126627065" to="231882049"/>
    <trip id="motorcycle30" type="motorcycle_motorcycle" depart="907.29" departLane="best" departSpeed="max" from="670315380" to="416294069#1"/>
    <trip id="motorcycle34" type="motorcycle_motorcycle" depart="1028.27" departLane="best" from="193289327" to="194607856"/>
    <trip id="motorcycle37" type="motorcycle_motorcycle" depart="1119.00" departLane="best" departSpeed="max" from="591355894" to="231882049"/>
    <trip id="motorcycle38" type="motorcycle_motorcycle" depart="1149.24" departLane="best" departSpeed="max" from="670315380" to="231882049"/>
    <trip id="motorcycle41" type="motorcycle_motorcycle" depart="1239.97" departLane="best" departSpeed="max" from="591355894" to="670112944#1"/>
    <trip id="motorcycle43" type="motorcycle_motorcycle" depart="1300.45" departLane="best" departSpeed="max" from="670315380" to="416294069#0"/>
    <trip id="motorcycle44" type="motorcycle_motorcycle" depart="1330.70" departLane="best" departSpeed="max" from="1126627065" to="1118309782"/>
    <trip id="motorcycle45" type="motorcycle_motorcycle" depart="1360.94" departLane="best" departSpeed="max" from="1126627065" to="416294069#1"/>
    <trip id="motorcycle46" type="motorcycle_motorcycle" depart="1391.18" departLane="best" departSpeed="max" from="648697035" to="231882049"/>
    <trip id="motorcycle47" type="motorcycle_motorcycle" depart="1421.43" departLane="best" departSpeed="max" from="1126627065" to="231882049"/>
    <trip id="motorcycle48" type="motorcycle_motorcycle" depart="1451.67" departLane="best" departSpeed="max" from="670315380" to="416294069#1"/>
    <trip id="motorcycle49" type="motorcycle_motorcycle" depart="1481.91" departLane="best" departSpeed="max" from="670315380" to="670112944#1"/>
    <trip id="motorcycle51" type="motorcycle_motorcycle" depart="1542.40" departLane="best" departSpeed="max" from="591355894" to="416294069#1"/>
    <trip id="motorcycle53" type="motorcycle_motorcycle" depart="1602.89" departLane="best" departSpeed="max" from="1126627065" to="231882049"/>
    <trip id="motorcycle54" type="motorcycle_motorcycle" depart="1633.13" departLane="best" departSpeed="max" from="226834863#0" to="670112944#1"/>
    <trip id="motorcycle56" type="motorcycle_motorcycle" depart="1693.61" departLane="best" from="226834863#0-AddedOffRampEdge" to="1132407062"/>
    <trip id="motorcycle57" type="motorcycle_motorcycle" depart="1723.86" departLane="best" departSpeed="max" from="670315380" to="670112944#1"/>
    <trip id="motorcycle60" type="motorcycle_motorcycle" depart="1814.59" departLane="best" departSpeed="max" from="648697035" to="416294069#1"/>
    <trip id="motorcycle61" type="motorcycle_motorcycle" depart="1844.83" departLane="best" departSpeed="max" from="648697035" to="416294069#1"/>
    <trip id="motorcycle63" type="motorcycle_motorcycle" depart="1905.32" departLane="best" from="1090811371" to="670112944#1"/>
    <trip id="motorcycle66" type="motorcycle_motorcycle" depart="1996.05" departLane="best" from="670112944#1-AddedOnRampEdge" to="670112944#1"/>
    <trip id="motorcycle67" type="motorcycle_motorcycle" depart="2026.29" departLane="best" departSpeed="max" from="1126627065" to="231882049"/>
    <trip id="motorcycle68" type="motorcycle_motorcycle" depart="2056.53" departLane="best" departSpeed="max" from="1126627065" to="591357319"/>
    <trip id="motorcycle69" type="motorcycle_motorcycle" depart="2086.78" departLane="best" departSpeed="max" from="648697035" to="1132407060"/>
    <trip id="motorcycle70" type="motorcycle_motorcycle" depart="2117.02" departLane="best" departSpeed="max" from="226834863#0" to="416294069#1"/>
    <trip id="motorcycle72" type="motorcycle_motorcycle" depart="2177.50" departLane="best" departSpeed="max" from="226834863#0" to="193289326"/>
    <trip id="motorcycle73" type="motorcycle_motorcycle" depart="2207.75" departLane="best" from="226834863#1" to="591357319"/>
    <trip id="motorcycle75" type="motorcycle_motorcycle" depart="2268.23" departLane="best" departSpeed="max" from="670315380" to="591355896"/>
    <trip id="motorcycle76" type="motorcycle_motorcycle" depart="2298.48" departLane="best" departSpeed="max" from="226834863#0" to="416294069#1"/>
    <trip id="motorcycle80" type="motorcycle_motorcycle" depart="2419.45" departLane="best" departSpeed="max" from="1126627065" to="416294069#1"/>
    <trip id="motorcycle85" type="motorcycle_motorcycle" depart="2570.66" departLane="best" departSpeed="max" from="670315380" to="416294069#1"/>
    <trip id="motorcycle86" type="motorcycle_motorcycle" depart="2600.91" departLane="best" departSpeed="max" from="226834863#0" to="591357319"/>
    <trip id="motorcycle87" type="motorcycle_motorcycle" depart="2631.15" departLane="best" departSpeed="max" from="648697035" to="193289326"/>
    <trip id="motorcycle88" type="motorcycle_motorcycle" depart="2661.39" departLane="best" departSpeed="max" from="1126627065" to="231882049"/>
    <trip id="motorcycle89" type="motorcycle_motorcycle" depart="2691.64" departLane="best" departSpeed="max" from="226834863#0" to="231882049"/>
    <trip id="motorcycle92" type="motorcycle_motorcycle" depart="2782.37" departLane="best" departSpeed="max" from="226834863#0" to="226834863#1"/>
    <trip id="motorcycle94" type="motorcycle_motorcycle" depart="2842.85" departLane="best" from="1132401297" to="231882049"/>
    <trip id="motorcycle96" type="motorcycle_motorcycle" depart="2903.34" departLane="best" from="1132407061" to="670112944#1"/>
    <trip id="motorcycle97" type="motorcycle_motorcycle" depart="2933.58" departLane="best" departSpeed="max" from="226834863#0" to="670112944#1"/>
    <trip id="motorcycle99" type="motorcycle_motorcycle" depart="2994.07" departLane="best" departSpeed="max" from="670315380" to="670112944#0"/>
    <trip id="motorcycle100" type="motorcycle_motorcycle" depart="3024.31" departLane="best" departSpeed="max" from="670315380" to="670112944#1"/>
    <trip id="motorcycle102" type="motorcycle_motorcycle" depart="3084.80" departLane="best" departSpeed="max" from="226834863#0" to="193289326"/>
    <trip id="motorcycle104" type="motorcycle_motorcycle" depart="3145.28" departLane="best" from="215507255" to="670112944#1-AddedOnRampEdge"/>
    <trip id="motorcycle106" type="motorcycle_motorcycle" depart="3205.77" departLane="best" departSpeed="max" from="226834863#0" to="231882049"/>
    <trip id="motorcycle107" type="motorcycle_motorcycle" depart="3236.01" departLane="best" departSpeed="max" from="670315380" to="670112944#1-AddedOnRampEdge"/>
    <trip id="motorcycle109" type="motorcycle_motorcycle" depart="3296.50" departLane="best" departSpeed="max" from="1126627065" to="215507255"/>
    <trip id="motorcycle110" type="motorcycle_motorcycle" depart="3326.74" departLane="best" departSpeed="max" from="670315380" to="416294069#1"/>
    <trip id="motorcycle111" type="motorcycle_motorcycle" depart="3356.99" departLane="best" from="226834863#1" to="591357319"/>
    <trip id="motorcycle112" type="motorcycle_motorcycle" depart="3387.23" departLane="best" departSpeed="max" from="1126627065" to="416294069#1"/>
    <trip id="motorcycle113" type="motorcycle_motorcycle" depart="3417.47" departLane="best" from="226834863#0-AddedOffRampEdge" to="670112944#1"/>
    <trip id="motorcycle114" type="motorcycle_motorcycle" depart="3447.72" departLane="best" departSpeed="max" from="1126627065" to="670112944#1"/>
    <trip id="motorcycle115" type="motorcycle_motorcycle" depart="3477.96" departLane="best" departSpeed="max" from="1126627065" to="1132407062"/>
    <trip id="motorcycle116" type="motorcycle_motorcycle" depart="3508.20" departLane="best" departSpeed="max" from="591355894" to="591355896"/>
    <trip id="motorcycle117" type="motorcycle_motorcycle" depart="3538.44" departLane="best" from="1132407060" to="1132407060"/>
    <trip id="motorcycle118" type="motorcycle_motorcycle" depart="3568.69" departLane="best" departSpeed="max" from="670315380" to="194607856"/>
    <trip id="motorcycle119" type="motorcycle_motorcycle" depart="3598.93" departLane="best" departSpeed="max" from="591355894" to="416294069#1"/>
</routes>
