<?xml version="1.0" encoding="UTF-8"?>

<!-- generated on 2024-10-01 21:50:02.471140 by osmWebWizard.py v1_20_0+0002-343658e7c64
<configuration>
    <net-file value="E:\ACER\Downloads\rl-environment-main\rl-environment-main\2024-10-01-20-21-00\2024-10-01-21-49-55\osm.net.xml.gz"/>
    <output-trip-file value="E:\ACER\Downloads\rl-environment-main\rl-environment-main\2024-10-01-20-21-00\2024-10-01-21-49-55\osm.passenger.trips.xml"/>
    <route-file value="E:\ACER\Downloads\rl-environment-main\rl-environment-main\2024-10-01-20-21-00\2024-10-01-21-49-55\osm.passenger.rou.xml"/>
    <prefix value="veh"/>
    <trip-attributes value="departLane=&quot;best&quot;"/>
    <fringe-start-attributes value="departSpeed=&quot;max&quot;"/>
    <vehicle-class value="passenger"/>
    <lanes value="True"/>
    <fringe-factor value="5"/>
    <allow-fringe.min-length value="1000.0"/>
    <via-edge-types value="highway.motorway,highway.motorway_link,highway.trunk_link,highway.primary_link,highway.secondary_link,highway.tertiary_link"/>
    <min-distance value="300.0"/>
    <min-distance.fringe value="10.0"/>
    <remove-loops value="True"/>
    <validate value="True"/>
    <insertion-density value="12.0"/>
</configuration>
-->

<!-- generated on 2024-10-01 21:50:02 by Eclipse SUMO duarouter Version 1.20.0
<configuration xmlns:xsi="http://www.w3.org/2001/XMLSchema-instance" xsi:noNamespaceSchemaLocation="http://sumo.dlr.de/xsd/duarouterConfiguration.xsd">

    <input>
        <net-file value="E:\ACER\Downloads\rl-environment-main\rl-environment-main\2024-10-01-20-21-00\2024-10-01-21-49-55\osm.net.xml.gz"/>
        <route-files value="E:\ACER\Downloads\rl-environment-main\rl-environment-main\2024-10-01-20-21-00\2024-10-01-21-49-55\osm.passenger.trips.xml"/>
    </input>

    <output>
        <output-file value="E:\ACER\Downloads\rl-environment-main\rl-environment-main\2024-10-01-20-21-00\2024-10-01-21-49-55\osm.passenger.trips.xml.tmp"/>
        <alternatives-output value="NUL"/>
        <write-trips value="true"/>
    </output>

    <processing>
        <remove-loops value="true"/>
    </processing>

    <time>
        <begin value="0.0"/>
        <end value="3600.0"/>
    </time>

    <report>
        <no-warnings value="true"/>
        <ignore-errors value="true"/>
        <no-step-log value="true"/>
    </report>

</configuration>
-->

<routes xmlns:xsi="http://www.w3.org/2001/XMLSchema-instance" xsi:noNamespaceSchemaLocation="http://sumo.dlr.de/xsd/routes_file.xsd">
    <vType id="veh_passenger" vClass="passenger"/>
    <trip id="veh0" type="veh_passenger" depart="0.00" departLane="best" departSpeed="max" from="591355894" to="1118309782"/>
    <trip id="veh1" type="veh_passenger" depart="37.80" departLane="best" departSpeed="max" from="226834863#0" to="1118309782"/>
    <trip id="veh2" type="veh_passenger" depart="75.61" departLane="best" from="1132407061" to="231882049"/>
    <trip id="veh3" type="veh_passenger" depart="113.41" departLane="best" departSpeed="max" from="591355894" to="416294069#0"/>
    <trip id="veh4" type="veh_passenger" depart="151.22" departLane="best" from="1132407061" to="416294069#1"/>
    <trip id="veh8" type="veh_passenger" depart="302.43" departLane="best" departSpeed="max" from="670315380" to="231882049"/>
    <trip id="veh9" type="veh_passenger" depart="340.24" departLane="best" departSpeed="max" from="1126627065" to="1132407060"/>
    <trip id="veh11" type="veh_passenger" depart="415.84" departLane="best" departSpeed="max" from="648697035" to="591357319"/>
    <trip id="veh12" type="veh_passenger" depart="453.65" departLane="best" departSpeed="max" from="226834863#0" to="416294069#0"/>
    <trip id="veh15" type="veh_passenger" depart="567.06" departLane="best" departSpeed="max" from="1126627065" to="215507255"/>
    <trip id="veh17" type="veh_passenger" depart="642.67" departLane="best" departSpeed="max" from="591355894" to="231882049"/>
    <trip id="veh18" type="veh_passenger" depart="680.47" departLane="best" departSpeed="max" from="226834863#0" to="194607856"/>
    <trip id="veh20" type="veh_passenger" depart="756.08" departLane="best" departSpeed="max" from="591355894" to="416294069#1"/>
    <trip id="veh21" type="veh_passenger" depart="793.88" departLane="best" from="1132401297" to="591357319"/>
    <trip id="veh22" type="veh_passenger" depart="831.69" departLane="best" from="1132401297" to="231882049"/>
    <trip id="veh23" type="veh_passenger" depart="869.49" departLane="best" departSpeed="max" from="670315380" to="416294069#1"/>
    <trip id="veh27" type="veh_passenger" depart="1020.71" departLane="best" departSpeed="max" from="591355894" to="231882049"/>
    <trip id="veh28" type="veh_passenger" depart="1058.51" departLane="best" departSpeed="max" from="670315380" to="231882049"/>
    <trip id="veh29" type="veh_passenger" depart="1096.31" departLane="best" departSpeed="max" from="591355894" to="670112944#1"/>
    <trip id="veh31" type="veh_passenger" depart="1171.92" departLane="best" departSpeed="max" from="670315380" to="231882049"/>
    <trip id="veh32" type="veh_passenger" depart="1209.72" departLane="best" departSpeed="max" from="1126627065" to="1132401297"/>
    <trip id="veh33" type="veh_passenger" depart="1247.53" departLane="best" departSpeed="max" from="648697035" to="231882049"/>
    <trip id="veh34" type="veh_passenger" depart="1285.33" departLane="best" departSpeed="max" from="1126627065" to="231882049"/>
    <trip id="veh35" type="veh_passenger" depart="1323.14" departLane="best" departSpeed="max" from="670315380" to="416294069#0"/>
    <trip id="veh36" type="veh_passenger" depart="1360.94" departLane="best" departSpeed="max" from="670315380" to="670112944#1"/>
    <trip id="veh39" type="veh_passenger" depart="1474.35" departLane="best" departSpeed="max" from="1126627065" to="231882049"/>
    <trip id="veh40" type="veh_passenger" depart="1512.16" departLane="best" departSpeed="max" from="226834863#0" to="670112944#1"/>
    <trip id="veh41" type="veh_passenger" depart="1549.96" departLane="best" departSpeed="max" from="670315380" to="670112944#1"/>
    <trip id="veh42" type="veh_passenger" depart="1587.76" departLane="best" from="193289327" to="416294069#1"/>
    <trip id="veh43" type="veh_passenger" depart="1625.57" departLane="best" departSpeed="max" from="648697035" to="416294069#0"/>
    <trip id="veh44" type="veh_passenger" depart="1663.37" departLane="best" departSpeed="max" from="648697035" to="416294069#0"/>
    <trip id="veh46" type="veh_passenger" depart="1738.98" departLane="best" from="1090811371" to="670112944#1"/>
    <trip id="veh47" type="veh_passenger" depart="1776.78" departLane="best" departSpeed="max" from="1126627065" to="231882049"/>
    <trip id="veh48" type="veh_passenger" depart="1814.59" departLane="best" departSpeed="max" from="1126627065" to="591357319"/>
    <trip id="veh49" type="veh_passenger" depart="1852.39" departLane="best" departSpeed="max" from="648697035" to="1132407061"/>
    <trip id="veh51" type="veh_passenger" depart="1928.00" departLane="best" departSpeed="max" from="226834863#0" to="194607856"/>
    <trip id="veh53" type="veh_passenger" depart="2003.61" departLane="best" departSpeed="max" from="670315380" to="416294069#1"/>
    <trip id="veh54" type="veh_passenger" depart="2041.41" departLane="best" departSpeed="max" from="1126627065" to="215507255"/>
    <trip id="veh55" type="veh_passenger" depart="2079.21" departLane="best" from="215507255" to="416294069#1"/>
    <trip id="veh56" type="veh_passenger" depart="2117.02" departLane="best" from="1132407061" to="670112944#1"/>
    <trip id="veh58" type="veh_passenger" depart="2192.63" departLane="best" from="1132407060" to="1132407062"/>
    <trip id="veh59" type="veh_passenger" depart="2230.43" departLane="best" departSpeed="max" from="670315380" to="416294069#1"/>
    <trip id="veh60" type="veh_passenger" depart="2268.23" departLane="best" departSpeed="max" from="226834863#0" to="591357319"/>
    <trip id="veh62" type="veh_passenger" depart="2343.84" departLane="best" departSpeed="max" from="1126627065" to="231882049"/>
    <trip id="veh63" type="veh_passenger" depart="2381.65" departLane="best" departSpeed="max" from="670315380" to="591355896"/>
    <trip id="veh64" type="veh_passenger" depart="2419.45" departLane="best" from="1132401300" to="231882049"/>
    <trip id="veh65" type="veh_passenger" depart="2457.25" departLane="best" departSpeed="max" from="226834863#0" to="226834863#0-AddedOffRampEdge"/>
    <trip id="veh67" type="veh_passenger" depart="2532.86" departLane="best" departSpeed="max" from="226834863#0" to="670112944#1"/>
    <trip id="veh68" type="veh_passenger" depart="2570.66" departLane="best" departSpeed="max" from="670315380" to="670112944#0"/>
    <trip id="veh69" type="veh_passenger" depart="2608.47" departLane="best" departSpeed="max" from="670315380" to="670112944#1"/>
    <trip id="veh72" type="veh_passenger" depart="2721.88" departLane="best" departSpeed="max" from="226834863#0" to="670112944#1-AddedOnRampEdge"/>
    <trip id="veh73" type="veh_passenger" depart="2759.68" departLane="best" from="193289326" to="591357319"/>
    <trip id="veh74" type="veh_passenger" depart="2797.49" departLane="best" departSpeed="max" from="670315380" to="670112944#1-AddedOnRampEdge"/>
    <trip id="veh75" type="veh_passenger" depart="2835.29" departLane="best" departSpeed="max" from="670315380" to="416294069#1"/>
    <trip id="veh77" type="veh_passenger" depart="2910.90" departLane="best" from="226834863#0-AddedOffRampEdge" to="670112944#1"/>
    <trip id="veh79" type="veh_passenger" depart="2986.51" departLane="best" departSpeed="max" from="591355894" to="416294069#1"/>
    <trip id="veh80" type="veh_passenger" depart="3024.31" departLane="best" departSpeed="max" from="591355894" to="416294069#1"/>
    <trip id="veh81" type="veh_passenger" depart="3062.12" departLane="best" departSpeed="max" from="226834863#0" to="416294069#1"/>
    <trip id="veh83" type="veh_passenger" depart="3137.72" departLane="best" from="1132407062" to="231882049"/>
    <trip id="veh86" type="veh_passenger" depart="3251.14" departLane="best" departSpeed="max" from="1126627065" to="231882049"/>
    <trip id="veh87" type="veh_passenger" depart="3288.94" departLane="best" departSpeed="max" from="670315380" to="670112944#1-AddedOnRampEdge"/>
    <trip id="veh88" type="veh_passenger" depart="3326.74" departLane="best" departSpeed="max" from="1126627065" to="194607856"/>
    <trip id="veh90" type="veh_passenger" depart="3402.35" departLane="best" departSpeed="max" from="226834863#0" to="193289326"/>
    <trip id="veh91" type="veh_passenger" depart="3440.15" departLane="best" departSpeed="max" from="591355894" to="670112944#1-AddedOnRampEdge"/>
    <trip id="veh94" type="veh_passenger" depart="3553.57" departLane="best" departSpeed="max" from="591355894" to="670112944#1"/>
    <trip id="veh95" type="veh_passenger" depart="3591.37" departLane="best" departSpeed="max" from="1126627065" to="1132407061"/>
</routes>
