<?xml version="1.0" encoding="UTF-8"?>

<!-- generated on 2024-10-01 21:50:00.931077 by osmWebWizard.py v1_20_0+0002-343658e7c64
<configuration>
    <net-file value="E:\ACER\Downloads\rl-environment-main\rl-environment-main\2024-10-01-20-21-00\2024-10-01-21-49-55\osm.net.xml.gz"/>
    <ptlines-file value="E:\ACER\Downloads\rl-environment-main\rl-environment-main\2024-10-01-20-21-00\2024-10-01-21-49-55\osm_ptlines.xml"/>
    <ptstops-file value="E:\ACER\Downloads\rl-environment-main\rl-environment-main\2024-10-01-20-21-00\2024-10-01-21-49-55\osm_stops.add.xml"/>
    <output-file value="E:\ACER\Downloads\rl-environment-main\rl-environment-main\2024-10-01-20-21-00\2024-10-01-21-49-55\osm_pt.rou.xml"/>
    <stopinfos-file value="E:\ACER\Downloads\rl-environment-main\rl-environment-main\2024-10-01-20-21-00\2024-10-01-21-49-55\stopinfos.xml"/>
    <routes-file value="E:\ACER\Downloads\rl-environment-main\rl-environment-main\2024-10-01-20-21-00\2024-10-01-21-49-55\vehroutes.xml"/>
    <trips-file value="E:\ACER\Downloads\rl-environment-main\rl-environment-main\2024-10-01-20-21-00\2024-10-01-21-49-55\trips.trips.xml"/>
    <min-stops value="0"/>
    <extend-to-fringe value="True"/>
    <random-begin value="True"/>
    <seed value="42"/>
    <ignore-errors value="True"/>
    <vtype-prefix value="pt_"/>
    <verbose value="True"/>
</configuration>
-->

<routes xmlns:xsi="http://www.w3.org/2001/XMLSchema-instance" xsi:noNamespaceSchemaLocation="http://sumo.dlr.de/xsd/routes_file.xsd">
    <vType id="pt_bus" vClass="bus"/>
    <vType id="pt_tram" vClass="tram"/>
    <vType id="pt_train" vClass="rail"/>
    <vType id="pt_subway" vClass="subway"/>
    <vType id="pt_light_rail" vClass="rail_urban"/>
    <vType id="pt_monorail" vClass="rail_urban"/>
    <vType id="pt_trolleybus" vClass="bus"/>
    <vType id="pt_minibus" vClass="bus"/>
    <vType id="pt_share_taxi" vClass="taxi"/>
    <vType id="pt_aerialway" vClass="cable_car" length="2.5" width="2" personCapacity="4"/>
    <vType id="pt_ferry" vClass="ship"/>
    <route id="pt_bus_11:0" edges="591355894 193289327 194607856 1132407062 231882049" >
        <stop busStop="5645760472" duration="20" until="89.0"/> <!-- Koteshwar Stop -->
    </route>
    <route id="pt_bus_Chakrapath_Parikrama:0" edges="1118309782 1118309782 416294069#1" >
        <stop busStop="31228768" duration="20" until="31.0"/> <!-- Koteshwar Stop;Koteshwar Chok -->
    </route>
    <route id="pt_bus_7:0" edges="194607856 1132407062 231882049 1118309782" >
        <stop busStop="2377002167" duration="20" until="74.0"/> <!-- Jadibuti -->
    </route>
    <route id="pt_bus_Nepal_Yatayat:0" edges="1118309782 193289326 591357319" >
        <stop busStop="31228768" duration="20" until="31.0"/> <!-- Koteshwar Stop;Koteshwar Chok -->
    </route>
    <route id="pt_bus_Gothatar-Purano_Buspark:0" edges="1118309782" >
        <stop busStop="31228768" duration="20" until="31.0"/> <!-- Koteshwar Stop;Koteshwar Chok -->
    </route>
    <route id="pt_bus_Changu-Ratnapark:0" edges="1118309782 193289326 591357319" >
        <stop busStop="31228768" duration="20" until="31.0"/> <!-- Koteshwar Stop;Koteshwar Chok -->
    </route>
    <route id="pt_bus_kalanki-Balkumari:0" edges="1118309782" >
        <stop busStop="31228768" duration="20" until="31.0"/> <!-- Koteshwar Stop;Koteshwar Chok -->
    </route>
    <route id="pt_bus_Chyamasingh_to_Ratnapark:0" edges="226834863#0 226834863#0-AddedOffRampEdge 226834863#1 1118309782 193289326 591357319" >
    </route>
    <route id="pt_bus_Kalanki-Pepsacola:0" edges="1118309782 1132407060 194607856 1132407062 231882049" >
        <stop busStop="31228768" duration="20" until="31.0"/> <!-- Koteshwar Stop;Koteshwar Chok -->
        <stop busStop="2377002167" duration="20" until="105.0"/> <!-- Jadibuti -->
    </route>
    <route id="pt_bus_Nepal_Yatayat:1" edges="1118309782" >
        <stop busStop="31228768" duration="20" until="31.0"/> <!-- Koteshwar Stop;Koteshwar Chok -->
    </route>
    <route id="pt_bus_40:0" edges="1118309782 1132407060 194607856 1132407062 231882049" >
        <stop busStop="31228768" duration="20" until="31.0"/> <!-- Koteshwar Stop;Koteshwar Chok -->
        <stop busStop="2377002167" duration="20" until="148.0"/> <!-- Jadibuti -->
    </route>
    <route id="pt_bus_lagankhel_-_Naya_Buspark(Ringroad):0" edges="1118309782 193289326" >
        <stop busStop="31228768" duration="20" until="31.0"/> <!-- Koteshwar Stop;Koteshwar Chok -->
    </route>
    <route id="pt_bus_12:0" edges="591355894 193289327 194607856 1132407062 231882049 193289327 194607856 1132407062 231882049" >
        <stop busStop="2377002167" duration="20" until="196.0"/> <!-- Jadibuti -->
        <stop busStop="5645760472" duration="20" until="648.0"/> <!-- Koteshwar Stop -->
    </route>
    <flow id="pt_bus_11:0" type="pt_bus" route="pt_bus_11:0" begin="52.0" end="3652.0" period="600" line="11:0" >
        <param key="name" value="Ratnapark - Panauti"/>
        <param key="completeness" value="0.04"/>
    </flow>
    <flow id="pt_bus_Chakrapath_Parikrama:0" type="pt_bus" route="pt_bus_Chakrapath_Parikrama:0" begin="15.0" end="3615.0" period="600" line="Chakrapath_Parikrama:0" >
        <param key="name" value="Chakrapath Parikrama"/>
        <param key="completeness" value="0.04"/>
    </flow>
    <flow id="pt_bus_7:0" type="pt_bus" route="pt_bus_7:0" begin="17.0" end="3617.0" period="600" line="7:0" >
        <param key="name" value="Bagbazaar-Kamalbinayak"/>
        <param key="completeness" value="0.11"/>
    </flow>
    <flow id="pt_bus_Nepal_Yatayat:0" type="pt_bus" route="pt_bus_Nepal_Yatayat:0" begin="346.0" end="3946.0" period="600" line="Nepal_Yatayat:0" >
        <param key="name" value="Balkumari-Gopi Krishna"/>
        <param key="completeness" value="0.08"/>
    </flow>
    <flow id="pt_bus_Gothatar-Purano_Buspark:0" type="pt_bus" route="pt_bus_Gothatar-Purano_Buspark:0" begin="418.0" end="4018.0" period="600" line="Gothatar-Purano_Buspark:0" >
        <param key="name" value="Gothatar-Purano Buspark"/>
        <param key="completeness" value="0.10"/>
    </flow>
    <flow id="pt_bus_Changu-Ratnapark:0" type="pt_bus" route="pt_bus_Changu-Ratnapark:0" begin="382.0" end="3982.0" period="600" line="Changu-Ratnapark:0" >
        <param key="name" value="Changu-Ratnapark"/>
        <param key="completeness" value="0.05"/>
    </flow>
    <flow id="pt_bus_kalanki-Balkumari:0" type="pt_bus" route="pt_bus_kalanki-Balkumari:0" begin="449.0" end="4049.0" period="600" line="kalanki-Balkumari:0" >
        <param key="name" value="kalanki-Balkumari"/>
        <param key="completeness" value="0.09"/>
    </flow>
    <flow id="pt_bus_Chyamasingh_to_Ratnapark:0" type="pt_bus" route="pt_bus_Chyamasingh_to_Ratnapark:0" begin="131.0" end="3731.0" period="600" line="Chyamasingh_to_Ratnapark:0" >
        <param key="name" value="Chyamasingh to Ratnapark"/>
        <param key="completeness" value="0.03"/>
    </flow>
    <flow id="pt_bus_Kalanki-Pepsacola:0" type="pt_bus" route="pt_bus_Kalanki-Pepsacola:0" begin="480.0" end="4080.0" period="600" line="Kalanki-Pepsacola:0" >
        <param key="name" value="Kalanki-Pepsacola"/>
        <param key="completeness" value="0.15"/>
    </flow>
    <flow id="pt_bus_Nepal_Yatayat:1" type="pt_bus" route="pt_bus_Nepal_Yatayat:1" begin="631.0" end="4231.0" period="600" line="Nepal_Yatayat:1" >
        <param key="name" value="Gopi Krishna-Balkumari"/>
        <param key="completeness" value="0.08"/>
    </flow>
    <flow id="pt_bus_40:0" type="pt_bus" route="pt_bus_40:0" begin="516.0" end="4116.0" period="600" line="40:0" >
        <param key="name" value="Kausaltar-Naikap"/>
        <param key="completeness" value="0.15"/>
    </flow>
    <flow id="pt_bus_lagankhel_-_Naya_Buspark(Ringroad):0" type="pt_bus" route="pt_bus_lagankhel_-_Naya_Buspark(Ringroad):0" begin="595.0" end="4195.0" period="600" line="lagankhel_-_Naya_Buspark(Ringroad):0" >
        <param key="name" value="lagankhel - Naya Buspark(Ringroad)"/>
        <param key="completeness" value="0.05"/>
    </flow>
    <flow id="pt_bus_12:0" type="pt_bus" route="pt_bus_12:0" begin="133.0" end="3733.0" period="600" line="12:0" >
        <param key="name" value="Ratnapark - Dhulikhel"/>
        <param key="completeness" value="0.07"/>
    </flow>
</routes>
