<?xml version="1.0" encoding="UTF-8"?>

<!-- generated on 2024-10-01 21:50:00 by Eclipse SUMO polyconvert Version 1.20.0
<configuration xmlns:xsi="http://www.w3.org/2001/XMLSchema-instance" xsi:noNamespaceSchemaLocation="http://sumo.dlr.de/xsd/polyconvertConfiguration.xsd">

    <input>
        <net-file value="osm.net.xml.gz"/>
        <osm-files value="osm_bbox.osm.xml.gz"/>
        <osm.keep-full-type value="true"/>
        <osm.merge-relations value="1"/>
        <type-file value="${SUMO_HOME}/data/typemap/osmPolyconvert.typ.xml"/>
    </input>

    <output>
        <output-file value="osm.poly.xml.gz"/>
    </output>

    <report>
        <verbose value="true"/>
    </report>

</configuration>
-->

<additional xmlns:xsi="http://www.w3.org/2001/XMLSchema-instance" xsi:noNamespaceSchemaLocation="http://sumo.dlr.de/xsd/additional_file.xsd">
    <location netOffset="-336828.58,-3062308.93" convBoundary="-6.35,-91.57,670.70,945.76" origBoundary="85.345455,27.674367,85.352205,27.683668" projParameter="+proj=utm +zone=45 +ellps=WGS84 +datum=WGS84 +units=m +no_defs"/>

    <poly id="1022805579" type="building.yes" color="255,230,230" fill="1" layer="-1.00" shape="584.097051,88.661957 588.453790,94.277495 594.938511,85.646900 592.173139,82.470202 584.097051,88.661957"/>
    <poly id="1022805580" type="building.yes" color="255,230,230" fill="1" layer="-1.00" shape="578.514345,80.635940 583.749535,87.757912 591.585692,82.068036 586.340493,74.935113 578.514345,80.635940"/>
    <poly id="1022805581" type="building.yes" color="255,230,230" fill="1" layer="-1.00" shape="578.265911,79.763815 590.348179,71.413000 585.982991,65.165923 573.900720,73.516742 578.265911,79.763815"/>
    <poly id="1022805582" type="building.yes" color="255,230,230" fill="1" layer="-1.00" shape="579.406553,68.412092 582.546044,66.364353 579.273489,61.410301 576.133998,63.458040 579.406553,68.412092"/>
    <poly id="1022805583" type="building.yes" color="255,230,230" fill="1" layer="-1.00" shape="576.186524,70.339010 579.061318,68.416707 576.122565,64.078762 573.257633,66.000934 576.186524,70.339010"/>
    <poly id="1022805584" type="building.yes" color="255,230,230" fill="1" layer="-1.00" shape="572.646024,72.646988 575.656097,70.512325 572.057145,65.496148 569.047071,67.630812 572.646024,72.646988"/>
    <poly id="1022805585" type="building.yes" color="255,230,230" fill="1" layer="-1.00" shape="541.274087,76.390916 546.728688,78.523219 548.036037,75.214504 543.751740,73.543060 542.581435,73.082199 541.274087,76.390916"/>
    <poly id="1022806176" type="building.yes" color="255,230,230" fill="1" layer="-1.00" shape="563.925187,110.308037 567.812389,108.106236 559.720962,93.963480 555.833756,96.165283 563.925187,110.308037"/>
    <poly id="1022808208" type="building.yes" color="255,230,230" fill="1" layer="-1.00" shape="607.465833,-7.506218 617.789063,-7.965556 617.301080,-18.641691 606.987705,-18.182485 607.465833,-7.506218"/>
    <poly id="1022811989" type="building.yes" color="255,230,230" fill="1" layer="-1.00" shape="637.472367,51.190904 644.930803,47.500800 638.352217,34.346205 630.883911,38.036445 637.472367,51.190904"/>
    <poly id="1022817854" type="building.yes" color="255,230,230" fill="1" layer="-1.00" shape="267.907905,-23.752193 269.759689,-18.081045 283.198067,-22.405545 281.346140,-28.087774 267.907905,-23.752193"/>
    <poly id="1022820964" type="building.yes" color="255,230,230" fill="1" layer="-1.00" shape="386.392353,-46.072214 390.809041,-47.782483 387.897425,-55.245764 383.480735,-53.535493 386.392353,-46.072214"/>
    <poly id="1023895053" type="building.yes" color="255,230,230" fill="1" layer="-1.00" shape="659.930901,220.594338"/>
    <poly id="1023895054" type="building.yes" color="255,230,230" fill="1" layer="-1.00" shape="658.471039,239.807169 661.211063,249.212075 658.471039,239.807169"/>
    <poly id="1023895055" type="building.yes" color="255,230,230" fill="1" layer="-1.00" shape="647.663351,228.360244 652.139661,239.237961 661.912550,235.262054 657.436248,224.384334 647.663351,228.360244"/>
    <poly id="1023895056" type="building.yes" color="255,230,230" fill="1" layer="-1.00" shape="645.323066,221.554173 648.196824,227.677137 657.305299,223.444148 654.431544,217.321182 645.323066,221.554173"/>
    <poly id="1023895057" type="building.yes" color="255,230,230" fill="1" layer="-1.00" shape="647.423928,220.041164 655.864783,216.049809 651.632418,207.185681 647.024739,209.363840 648.709351,212.876357 644.866308,214.689687 647.423928,220.041164"/>
    <poly id="1023895058" type="building.yes" color="255,230,230" fill="1" layer="-1.00" shape="644.713845,207.710319 649.109204,205.147141 644.132517,196.691899 639.737155,199.255079 644.713845,207.710319"/>
    <poly id="1023895059" type="building.yes" color="255,230,230" fill="1" layer="-1.00" shape="628.203858,185.191526 632.419457,192.061184 644.162685,184.922841 641.379135,180.383340 636.721000,183.215991 635.288955,180.885830 628.203858,185.191526"/>
    <poly id="1023900720" type="building.yes" color="255,230,230" fill="1" layer="-1.00" shape="611.212046,124.414438 617.710027,119.728725 607.770634,106.087148 601.272501,110.761786 611.212046,124.414438"/>
    <poly id="1023900721" type="building.yes" color="255,230,230" fill="1" layer="-1.00" shape="636.963838,162.999914 649.572558,157.135477 646.252046,150.065465 633.643320,155.929905 636.963838,162.999914"/>
    <poly id="1023900722" type="building.yes" color="255,230,230" fill="1" layer="-1.00" shape="630.842833,136.098030 639.673571,128.056675 631.354440,119.014453 626.266535,123.648068 623.112938,120.210594 619.360386,123.629553 630.842833,136.098030"/>
    <poly id="1023900723" type="building.yes" color="255,230,230" fill="1" layer="-1.00" shape="637.687044,142.555786 644.721554,136.677187 638.947612,129.839432 631.913249,135.729113 637.687044,142.555786"/>
    <poly id="1023900724" type="building.yes" color="255,230,230" fill="1" layer="-1.00" shape="657.277783,154.938093 650.346720,146.409229 647.164733,148.967272 654.095797,157.496134 657.277783,154.938093"/>
    <poly id="1023900725" type="building.yes" color="255,230,230" fill="1" layer="-1.00" shape="614.962994,140.066926 624.573495,131.316997 619.838316,126.171932 615.549625,130.074567 611.605382,125.794380 606.283422,130.630601 614.962994,140.066926"/>
    <poly id="1023900726" type="building.yes" color="255,230,230" fill="1" layer="-1.00" shape="619.351775,164.321291 626.076537,162.580256 624.859541,157.886842 618.134777,159.627878 619.351775,164.321291"/>
    <poly id="1023904997" type="building.yes" color="255,230,230" fill="1" layer="-1.00" shape="651.606218,87.837253 647.584138,82.161815 643.039350,85.358638 647.061432,91.034075 651.606218,87.837253"/>
    <poly id="1023904998" type="building.yes" color="255,230,230" fill="1" layer="-1.00" shape="631.716569,87.792759 620.221800,70.714501 610.951720,76.888950 613.538412,80.721854 616.315459,78.867356 625.233407,92.112572 631.716569,87.792759"/>
    <poly id="1023904999" type="building.yes" color="255,230,230" fill="1" layer="-1.00" shape="623.330441,98.099903 626.795322,94.562894 621.228163,89.174071 617.773145,92.710950 623.330441,98.099903"/>
    <poly id="1023905000" type="building.yes" color="255,230,230" fill="1" layer="-1.00" shape="611.895909,103.981915 616.872115,99.848459 611.358155,93.273198 606.391811,97.406524 611.895909,103.981915"/>
    <poly id="1023905001" type="building.yes" color="255,230,230" fill="1" layer="-1.00" shape="606.866335,103.384244 594.594134,90.882017 585.371122,99.837340 597.643473,112.350637 606.866335,103.384244"/>
    <poly id="1023905002" type="building.yes" color="255,230,230" fill="1" layer="-1.00" shape="593.469775,88.691809 597.471500,93.580710 606.733801,86.087643 602.732077,81.198739 593.469775,88.691809"/>
    <poly id="1023905003" type="building.yes" color="255,230,230" fill="1" layer="-1.00" shape="649.324633,72.874344 656.229201,69.080831 651.144653,59.939968 644.240080,63.733483 649.324633,72.874344"/>
    <poly id="1023905004" type="building.yes" color="255,230,230" fill="1" layer="-1.00" shape="632.698649,56.451966 637.142359,65.623550 650.415412,59.262653 645.981574,50.090933 632.698649,56.451966"/>
    <poly id="1023905005" type="building.yes" color="255,230,230" fill="1" layer="-1.00" shape="635.169735,65.660993 630.697230,57.287669 617.354602,64.347659 621.836979,72.720846 635.169735,65.660993"/>
    <poly id="1023905006" type="building.yes" color="255,230,230" fill="1" layer="-1.00" shape="603.411299,72.967116 606.544038,71.152187 603.232129,65.467270 600.099389,67.282199 603.411299,72.967116"/>
    <poly id="1023905007" type="building.yes" color="255,230,230" fill="1" layer="-1.00" shape="596.426632,59.696071 599.660085,58.034938 596.875398,52.675422 593.641943,54.336556 596.426632,59.696071"/>
    <poly id="1023906465" type="building.yes" color="255,230,230" fill="1" layer="-1.00" shape="503.742261,-66.203887 510.765303,-69.256597 508.312962,-74.842172 501.289917,-71.789461 503.742261,-66.203887"/>
    <poly id="1023906466" type="building.yes" color="255,230,230" fill="1" layer="-1.00" shape="499.452876,-63.087999 502.766745,-64.639417 499.294727,-71.962246 495.980856,-70.410828 499.452876,-63.087999"/>
    <poly id="1023906467" type="building.yes" color="255,230,230" fill="1" layer="-1.00" shape="503.152955,-82.973548 505.293505,-77.095683 511.744209,-79.420433 509.603662,-85.298300 503.152955,-82.973548"/>
    <poly id="1023906468" type="building.yes" color="255,230,230" fill="1" layer="-1.00" shape="491.742444,-80.449479 506.541847,-87.030409 489.098676,-86.331694 491.742444,-80.449479"/>
    <poly id="1023906469" type="building.yes" color="255,230,230" fill="1" layer="-1.00" shape="495.577110,-71.092487 503.769224,-74.515448 500.631247,-81.942479 492.438979,-78.530596 495.577110,-71.092487"/>
    <poly id="1023906470" type="building.yes" color="255,230,230" fill="1" layer="-1.00" shape="504.454904,-60.129620 507.096036,-52.230516 518.470200,-55.995225 515.829075,-63.894331 504.454904,-60.129620"/>
    <poly id="1023907424" type="building.yes" color="255,230,230" fill="1" layer="-1.00" shape="568.704511,-4.483647 558.041542,-25.008272 547.900365,-19.786231 558.563199,0.727306 568.704511,-4.483647"/>
    <poly id="1023912130" type="building.yes" color="255,230,230" fill="1" layer="-1.00" shape="656.808691,122.785574 651.328203,116.497971 656.808691,122.785574"/>
    <poly id="1023912131" type="building.yes" color="255,230,230" fill="1" layer="-1.00" shape="658.506506,123.594007"/>
    <poly id="1023912132" type="building.yes" color="255,230,230" fill="1" layer="-1.00" shape="655.391752,180.650433"/>
    <poly id="1023913120" type="building.yes" color="255,230,230" fill="1" layer="-1.00" shape="660.647241,103.651778 656.240095,86.877725 650.849590,91.016700 660.647241,103.651778"/>
    <poly id="1023913122" type="building.yes" color="255,230,230" fill="1" layer="-1.00" shape="660.413329,66.210199 654.858075,56.543707 660.413329,66.210199"/>
    <poly id="1024496168" type="building.yes" color="255,230,230" fill="1" layer="-1.00" shape="511.186595,-51.033000 513.108203,-45.296266 522.851908,-48.518332 520.940168,-54.255199 511.186595,-51.033000"/>
    <poly id="1024496169" type="building.yes" color="255,230,230" fill="1" layer="-1.00" shape="532.533625,-43.095914 537.986427,-45.529206 536.705347,-48.371129 541.962057,-50.713144 539.084782,-57.090918 528.375263,-52.315608 532.533625,-43.095914"/>
    <poly id="1024496170" type="building.yes" color="255,230,230" fill="1" layer="-1.00" shape="523.526315,-20.956331 534.678160,-28.064697 528.643432,-37.425525 520.719864,-32.366094 513.486272,-43.583674 510.257986,-41.534731 523.526315,-20.956331"/>
    <poly id="1024496171" type="building.yes" color="255,230,230" fill="1" layer="-1.00" shape="537.972778,-27.366284 544.080235,-30.273754 539.726384,-39.357858 533.618775,-36.461465 537.972778,-27.366284"/>
    <poly id="1026634211" type="building.yes" color="255,230,230" fill="1" layer="-1.00" shape="655.333566,-81.384145"/>
    <poly id="1026634213" type="building.yes" color="255,230,230" fill="1" layer="-1.00" shape="649.281085,-29.319526 648.965042,-48.541866 649.281085,-29.319526"/>
    <poly id="1026635483" type="building.yes" color="255,230,230" fill="1" layer="-1.00" shape="614.747532,-39.186085 618.305455,-39.455267 617.576262,-48.986774 614.028201,-48.717723 614.747532,-39.186085"/>
    <poly id="1026635484" type="building.yes" color="255,230,230" fill="1" layer="-1.00" shape="576.644506,-34.144411 578.454555,-29.370277 606.548907,-39.940873 613.909928,-39.850867 612.189474,-47.518500 576.644506,-34.144411"/>
    <poly id="1026635485" type="building.yes" color="255,230,230" fill="1" layer="-1.00" shape="619.375872,-90.023802"/>
    <poly id="1026635489" type="building.yes" color="255,230,230" fill="1" layer="-1.00" shape="643.285350,-52.012083 648.517873,-53.212323 646.068174,-63.773592 640.835646,-62.573351 643.285350,-52.012083"/>
    <poly id="1026635490" type="building.yes" color="255,230,230" fill="1" layer="-1.00" shape="639.892762,-43.799615 645.708937,-44.143292 645.324782,-50.742788 639.498739,-50.398979 639.892762,-43.799615"/>
    <poly id="1026635491" type="building.yes" color="255,230,230" fill="1" layer="-1.00" shape="635.596901,-28.615835 646.963060,-29.288553 646.314764,-40.150932 634.948743,-39.467135 635.596901,-28.615835"/>
    <poly id="1026647062" type="building.yes" color="255,230,230" fill="1" layer="-1.00" shape="106.350002,-64.728066 103.642707,-74.598741 97.794130,-72.991066 100.501281,-63.131471 106.350002,-64.728066"/>
    <poly id="1026647063" type="building.yes" color="255,230,230" fill="1" layer="-1.00" shape="105.285751,-79.352621 106.782191,-75.172748 116.394928,-78.592858 114.898491,-82.772732 105.285751,-79.352621"/>
    <poly id="1026647064" type="building.yes" color="255,230,230" fill="1" layer="-1.00" shape="122.875907,-59.519614 136.684517,-64.192769 132.340814,-76.911655 125.878376,-74.730602 126.648622,-72.469195 119.302289,-69.988168 122.875907,-59.519614"/>
    <poly id="1026647065" type="building.yes" color="255,230,230" fill="1" layer="-1.00" shape="127.916591,-44.117241 142.429513,-49.974483 137.206738,-62.770240 122.703815,-56.902045 127.916591,-44.117241"/>
    <poly id="1026647066" type="building.yes" color="255,230,230" fill="1" layer="-1.00" shape="129.521052,-41.445914 133.931457,-31.110472 149.044154,-40.798907 145.582740,-48.786687 129.521052,-41.445914"/>
    <poly id="1026647067" type="building.yes" color="255,230,230" fill="1" layer="-1.00" shape="119.455421,-46.053917 124.026572,-47.278765 121.027655,-58.298023 116.466513,-57.062227 119.455421,-46.053917"/>
    <poly id="1026647068" type="building.yes" color="255,230,230" fill="1" layer="-1.00" shape="106.591639,-40.817163 118.258727,-44.065346 115.171772,-55.028014 103.504674,-51.779829 106.591639,-40.817163"/>
    <poly id="1026648410" type="building.yes" color="255,230,230" fill="1" layer="-1.00" shape="150.807524,27.462407 156.569424,25.279672 153.512749,17.308628 147.750846,19.491365 150.807524,27.462407"/>
    <poly id="1026648411" type="building.yes" color="255,230,230" fill="1" layer="-1.00" shape="120.144611,-2.002625 127.871944,-5.497189 124.904044,-11.995562 117.176708,-8.500996 120.144611,-2.002625"/>
    <poly id="1026648412" type="building.yes" color="255,230,230" fill="1" layer="-1.00" shape="141.351116,30.027115 149.687259,27.056321 146.223165,17.395251 137.877152,20.366180 141.351116,30.027115"/>
    <poly id="1026652720" type="building.yes" color="255,230,230" fill="1" layer="-1.00" shape="80.457833,-9.139017 88.543144,-13.159243 83.779178,-22.636645 75.693862,-18.616416 80.457833,-9.139017"/>
    <poly id="1026652721" type="building.yes" color="255,230,230" fill="1" layer="-1.00" shape="74.234563,17.496006 77.717403,27.079236 83.412028,25.030347 79.929192,15.447116 74.234563,17.496006"/>
    <poly id="1026652722" type="building.yes" color="255,230,230" fill="1" layer="-1.00" shape="86.777346,25.849589 93.553349,22.777778 89.183807,13.284004 82.417813,16.366766 86.777346,25.849589"/>
    <poly id="1026652723" type="building.yes" color="255,230,230" fill="1" layer="-1.00" shape="95.431088,24.492416 104.552922,21.256179 100.699404,10.514342 91.577562,13.750582 95.431088,24.492416"/>
    <poly id="1026652724" type="building.yes" color="255,230,230" fill="1" layer="-1.00" shape="78.389523,11.722172 86.154302,8.814404 83.290190,1.228650 75.525259,4.125340 78.389523,11.722172"/>
    <poly id="1026655094" type="building.yes" color="255,230,230" fill="1" layer="-1.00" shape="82.754969,85.655650 91.737087,85.247088 90.987391,69.066886 74.226079,69.834640 74.576530,77.575997 80.393689,77.309604 80.574067,81.196836 82.545949,81.103905 82.754969,85.655650"/>
    <poly id="1026655095" type="building.yes" color="255,230,230" fill="1" layer="-1.00" shape="57.865576,74.741570 68.350131,74.545556 68.124925,62.901787 57.650224,63.097668 57.865576,74.741570"/>
    <poly id="1026656184" type="building.yes" color="255,230,230" fill="1" layer="-1.00" shape="79.023292,108.278963 88.337644,107.633228 87.458825,95.067366 78.134748,95.724313 79.023292,108.278963"/>
    <poly id="1026658029" type="building.yes" color="255,230,230" fill="1" layer="-1.00" shape="114.574086,73.327359 124.098523,69.952757 121.146773,61.714355 111.622329,65.088958 114.574086,73.327359"/>
    <poly id="1026658030" type="building.yes" color="255,230,230" fill="1" layer="-1.00" shape="111.045298,59.578046 112.804570,64.230905 122.208717,60.713854 120.459460,56.071941 111.045298,59.578046"/>
    <poly id="1026658031" type="building.yes" color="255,230,230" fill="1" layer="-1.00" shape="166.621774,70.125246 168.836564,76.378842 189.074688,69.292430 186.859758,63.027751 166.621774,70.125246"/>
    <poly id="1026658032" type="building.yes" color="255,230,230" fill="1" layer="-1.00" shape="136.352199,86.920683 152.563119,81.893966 150.718185,76.001109 134.507109,81.016748 136.352199,86.920683"/>
    <poly id="1026658033" type="building.yes" color="255,230,230" fill="1" layer="-1.00" shape="136.634266,88.091554 139.972412,97.189147 151.626155,92.954902 148.288017,83.857307 136.634266,88.091554"/>
    <poly id="1026658034" type="building.yes" color="255,230,230" fill="1" layer="-1.00" shape="127.947842,96.574623 136.180037,93.948740 130.517721,76.327291 122.285366,78.942098 127.947842,96.574623"/>
    <poly id="1026658035" type="building.yes" color="255,230,230" fill="1" layer="-1.00" shape="162.802987,120.121296 170.157609,119.003217 167.995365,104.892046 160.630871,106.010259 162.802987,120.121296"/>
    <poly id="1026658846" type="building.yes" color="255,230,230" fill="1" layer="-1.00" shape="202.339545,127.126962 204.944169,144.069103 216.079357,142.368476 213.474749,125.426333 202.339545,127.126962"/>
    <poly id="1026658847" type="building.yes" color="255,230,230" fill="1" layer="-1.00" shape="200.532640,117.443675 201.844043,126.224909 211.621158,124.775190 210.309761,115.993956 200.532640,117.443675"/>
    <poly id="1026658848" type="building.yes" color="255,230,230" fill="1" layer="-1.00" shape="170.843746,96.586982 173.506794,103.898407 183.403523,100.330475 180.740480,93.019048 170.843746,96.586982"/>
    <poly id="1026658849" type="building.yes" color="255,230,230" fill="1" layer="-1.00" shape="171.317147,87.006117 173.547439,93.680608 182.898185,90.596502 180.667897,83.922010 171.317147,87.006117"/>
    <poly id="1026658850" type="building.yes" color="255,230,230" fill="1" layer="-1.00" shape="172.062112,85.910134 180.824596,83.099870 178.900022,77.152668 170.137683,79.974013 172.062112,85.910134"/>
    <poly id="1026658851" type="building.yes" color="255,230,230" fill="1" layer="-1.00" shape="182.310074,80.575517 192.919844,77.208589 190.850500,70.764652 180.240726,74.131582 182.310074,80.575517"/>
    <poly id="1026894051" type="building.yes" color="255,230,230" fill="1" layer="-1.00" shape="279.838191,244.573405 288.674817,242.150076 282.837806,221.040201 271.219372,224.221098 274.060053,234.488954 276.841696,233.720310 279.838191,244.573405"/>
    <poly id="1026898090" type="building.yes" color="255,230,230" fill="1" layer="-1.00" shape="327.109501,281.839477 336.584798,278.487856 334.094162,271.517624 324.618860,274.869247 327.109501,281.839477"/>
    <poly id="1026898091" type="building.yes" color="255,230,230" fill="1" layer="-1.00" shape="314.878612,287.167290 317.204394,294.350277 333.481318,289.112352 334.469473,292.179810 340.324051,290.295118 336.990548,280.056013 314.878612,287.167290"/>
    <poly id="1026898092" type="building.yes" color="255,230,230" fill="1" layer="-1.00" shape="314.129571,288.695502 327.740934,284.789814 320.851845,260.990098 315.102493,262.629594 319.064118,276.306666 311.201941,278.561783 314.129571,288.695502"/>
    <poly id="1026898093" type="building.yes" color="255,230,230" fill="1" layer="-1.00" shape="318.686803,304.857962 334.896523,300.496385 332.758978,292.634896 316.549247,296.996475 318.686803,304.857962"/>
    <poly id="1026915284" type="building.yes" color="255,230,230" fill="1" layer="-1.00" shape="375.357105,441.433669 383.308326,439.942027 379.114543,417.757366 371.153444,419.249142 375.357105,441.433669"/>
    <poly id="1026915286" type="building.yes" color="255,230,230" fill="1" layer="-1.00" shape="312.004840,413.658108 324.944166,414.094320 323.147112,407.347516 327.543497,397.503576 320.489371,393.054575 315.896789,393.404198 307.724763,395.353186 312.004840,413.658108"/>
    <poly id="1026921056" type="building.yes" color="255,230,230" fill="1" layer="-1.00" shape="379.071430,477.177563 387.182000,476.537073 386.077074,462.533621 377.956630,463.174243 379.071430,477.177563"/>
    <poly id="1026921057" type="building.yes" color="255,230,230" fill="1" layer="-1.00" shape="350.195880,472.034422 356.533463,470.863571 355.428291,464.949703 349.090706,466.120555 350.195880,472.034422"/>
    <poly id="1026921058" type="building.yes" color="255,230,230" fill="1" layer="-1.00" shape="337.600699,507.608838 361.238934,504.001095 358.581394,486.771516 334.952989,490.379131 337.600699,507.608838"/>
    <poly id="1026921059" type="building.yes" color="255,230,230" fill="1" layer="-1.00" shape="370.757991,537.827726 386.619590,536.961569 385.811829,522.311404 369.940348,523.177694 370.757991,537.827726"/>
    <poly id="1026921060" type="building.yes" color="255,230,230" fill="1" layer="-1.00" shape="371.683360,508.205258 387.066432,506.226267 386.296785,500.318987 370.913705,502.297979 371.683360,508.205258"/>
    <poly id="1026921061" type="building.yes" color="255,230,230" fill="1" layer="-1.00" shape="369.739813,521.462728 386.663131,520.316399 385.879397,508.934990 368.965927,510.081187 369.739813,521.462728"/>
    <poly id="1026921062" type="building.yes" color="255,230,230" fill="1" layer="-1.00" shape="367.361133,501.481174 378.358064,499.793608 375.529827,481.602212 364.533029,483.300859 367.361133,501.481174"/>
    <poly id="1026921063" type="building.yes" color="255,230,230" fill="1" layer="-1.00" shape="382.767428,496.077648 389.296263,495.192374 386.956472,478.113681 380.417764,478.999088 382.767428,496.077648"/>
    <poly id="1026921064" type="building.yes" color="255,230,230" fill="1" layer="-1.00" shape="341.348295,525.200592 351.346763,523.360146 349.357795,512.593282 339.349455,514.433861 341.348295,525.200592"/>
    <poly id="1026921065" type="building.yes" color="255,230,230" fill="1" layer="-1.00" shape="351.045866,513.412882 362.009857,512.213333 361.493536,507.543803 350.529541,508.743353 351.045866,513.412882"/>
    <poly id="1026921066" type="building.yes" color="255,230,230" fill="1" layer="-1.00" shape="352.861657,520.824335 362.965885,519.514401 362.218772,513.817370 352.114688,515.138385 352.861657,520.824335"/>
    <poly id="1026921067" type="building.yes" color="255,230,230" fill="1" layer="-1.00" shape="357.023201,539.862243 365.553557,538.894749 364.357540,528.405389 355.827176,529.372883 357.023201,539.862243"/>
    <poly id="1026924016" type="building.yes" color="255,230,230" fill="1" layer="-1.00" shape="357.806439,548.994091 368.085739,548.235896 367.700984,543.077013 357.421827,543.846288 357.806439,548.994091"/>
    <poly id="1026924017" type="building.yes" color="255,230,230" fill="1" layer="-1.00" shape="358.354218,560.434068 369.310231,559.378691 368.269364,548.687784 357.313340,549.743162 358.354218,560.434068"/>
    <poly id="1026924018" type="building.yes" color="255,230,230" fill="1" layer="-1.00" shape="359.797276,573.901076 371.688378,572.689119 368.718350,560.118001 358.493569,561.263324 359.797276,573.901076"/>
    <poly id="1026924019" type="building.yes" color="255,230,230" fill="1" layer="-1.00" shape="339.357219,572.479276 358.076799,569.923647 355.849253,553.862963 337.139660,556.429541 339.357219,572.479276"/>
    <poly id="1026924020" type="building.yes" color="255,230,230" fill="1" layer="-1.00" shape="315.835597,556.792407 324.750835,555.099424 322.917147,545.615950 314.011766,547.308803 315.835597,556.792407"/>
    <poly id="1026924021" type="building.yes" color="255,230,230" fill="1" layer="-1.00" shape="317.684269,565.921067 326.131394,564.633292 324.899387,556.615616 316.452256,557.903392 317.684269,565.921067"/>
    <poly id="1026924022" type="building.yes" color="255,230,230" fill="1" layer="-1.00" shape="319.604832,581.154738 324.769572,580.808531 323.944913,568.585466 318.780168,568.931673 319.604832,581.154738"/>
    <poly id="1026927705" type="building.yes" color="255,230,230" fill="1" layer="-1.00" shape="295.580095,617.026350 301.476985,602.109075 299.894707,595.193173 289.182815,599.004669 290.556608,602.875917 285.391889,604.695994 290.415382,618.846426 295.580095,617.026350"/>
    <poly id="1026927706" type="building.yes" color="255,230,230" fill="1" layer="-1.00" shape="266.200877,616.976639 270.760815,616.405796 269.093917,603.174505 264.533973,603.745348 266.200877,616.976639"/>
    <poly id="1026927707" type="building.yes" color="255,230,230" fill="1" layer="-1.00" shape="258.681941,620.534838 264.928079,619.908157 263.630871,607.026526 257.384727,607.653206 258.681941,620.534838"/>
    <poly id="1026927708" type="building.yes" color="255,230,230" fill="1" layer="-1.00" shape="253.637989,617.377662 257.338027,616.685356 255.596180,607.433373 251.896138,608.125679 253.637989,617.377662"/>
    <poly id="1026927709" type="building.yes" color="255,230,230" fill="1" layer="-1.00" shape="247.345502,618.226602 252.304051,617.218228 250.773801,609.769715 245.825113,610.777957 247.345502,618.226602"/>
    <poly id="1026927710" type="building.yes" color="255,230,230" fill="1" layer="-1.00" shape="304.439775,609.715711 318.598827,606.955142 315.550270,591.470619 301.391200,594.231191 304.439775,609.715711"/>
    <poly id="1026931526" type="building.yes" color="255,230,230" fill="1" layer="-1.00" shape="284.180497,535.618307 292.995639,535.289681 292.815838,530.704298 284.010705,531.043871 284.180497,535.618307"/>
    <poly id="1026931527" type="building.yes" color="255,230,230" fill="1" layer="-1.00" shape="250.677442,546.616830 258.409375,546.435671 257.923778,525.653051 250.201547,525.822999 250.677442,546.616830"/>
    <poly id="1026931528" type="building.yes" color="255,230,230" fill="1" layer="-1.00" shape="241.543856,546.739203 249.944724,546.416096 249.431234,533.125027 241.040220,533.448002 241.543856,546.739203"/>
    <poly id="1026931529" type="building.yes" color="255,230,230" fill="1" layer="-1.00" shape="271.177692,521.596927 281.152650,520.211084 278.774887,503.254809 268.799915,504.640653 271.177692,521.596927"/>
    <poly id="1026957548" type="building.yes" color="255,230,230" fill="1" layer="-1.00" shape="253.052939,506.702242 263.369732,506.530784 263.235203,498.697879 252.918403,498.869337 253.052939,506.702242"/>
    <poly id="1026961904" type="building.yes" color="255,230,230" fill="1" layer="-1.00" shape="235.536778,399.544915 247.898613,398.847376 247.379827,389.579009 235.017983,390.276548 235.536778,399.544915"/>
    <poly id="1026961905" type="building.yes" color="255,230,230" fill="1" layer="-1.00" shape="236.869517,409.921620 247.965387,408.986165 247.192374,399.887429 230.805086,401.292718 231.587826,410.380243 236.869517,409.921620"/>
    <poly id="1026961906" type="building.yes" color="255,230,230" fill="1" layer="-1.00" shape="265.751680,400.813450 266.530374,408.127970 272.973300,407.454338 272.194610,400.139818 265.751680,400.813450"/>
    <poly id="1026961907" type="building.yes" color="255,230,230" fill="1" layer="-1.00" shape="266.108322,400.188102 272.443791,399.593481 271.480340,389.533194 265.154729,390.127683 266.108322,400.188102"/>
    <poly id="1026961908" type="building.yes" color="255,230,230" fill="1" layer="-1.00" shape="316.152791,391.893670 315.230907,381.987967 304.530298,382.973473 305.452190,392.879175 316.152791,391.893670"/>
    <poly id="1026967569" type="building.yes" color="255,230,230" fill="1" layer="-1.00" shape="267.717524,376.706755 280.462054,375.117596 279.479417,367.307134 270.605497,368.412263 270.163904,364.905305 266.293286,365.389336 267.717524,376.706755"/>
    <poly id="1026967570" type="building.yes" color="255,230,230" fill="1" layer="-1.00" shape="293.544536,384.029298 312.977622,380.954307 302.504648,373.891512 292.467209,377.250695 293.544536,384.029298"/>
    <poly id="1026970493" type="building.yes" color="255,230,230" fill="1" layer="-1.00" shape="299.277297,288.340320 293.280543,275.189181 286.566417,277.717060 284.278614,274.844318 276.392600,282.684913 289.743131,291.714923 299.277297,288.340320"/>
    <poly id="1026970494" type="building.yes" color="255,230,230" fill="1" layer="-1.00" shape="309.425013,265.952536 315.036568,264.337046 313.237344,258.166516 307.625935,259.793087 309.425013,265.952536"/>