<?xml version="1.0" encoding="UTF-8"?>

<!-- generated on 2024-10-01 21:49:59 by Eclipse SUMO netconvert Version 1.20.0
<configuration xmlns:xsi="http://www.w3.org/2001/XMLSchema-instance" xsi:noNamespaceSchemaLocation="http://sumo.dlr.de/xsd/netconvertConfiguration.xsd">

    <input>
        <type-files value="${SUMO_HOME}/data/typemap/osmNetconvert.typ.xml,${SUMO_HOME}/data/typemap/osmNetconvertAerialway.typ.xml"/>
        <osm-files value="osm_bbox.osm.xml.gz"/>
    </input>

    <output>
        <output-file value="osm.net.xml.gz"/>
        <output.street-names value="true"/>
        <output.original-names value="true"/>
        <ptstop-output value="osm_stops.add.xml"/>
        <ptline-output value="osm_ptlines.xml"/>
    </output>

    <projection>
        <proj.utm value="true"/>
    </projection>

    <processing>
        <geometry.remove value="true"/>
        <roundabouts.guess value="true"/>
        <lefthand value="true"/>
    </processing>

    <tls_building>
        <tls.discard-simple value="true"/>
        <tls.join value="true"/>
        <tls.guess-signals value="true"/>
        <tls.default-type value="actuated"/>
    </tls_building>

    <ramp_guessing>
        <ramps.guess value="true"/>
    </ramp_guessing>

    <junctions>
        <junctions.join value="true"/>
        <junctions.corner-detail value="5"/>
    </junctions>

    <railway>
        <railway.topology.repair value="true"/>
    </railway>

</configuration>
-->

<additional xmlns:xsi="http://www.w3.org/2001/XMLSchema-instance" xsi:noNamespaceSchemaLocation="http://sumo.dlr.de/xsd/additional_file.xsd">
    <busStop id="2377002167" name="Jadibuti" lane="231882049_0" startPos="0.00" endPos="25.00" friendlyPos="true" lines="7 12 Kalanki-Pepsacola 40"/>
    <busStop id="31228768" name="Koteshwar Stop;Koteshwar Chok" lane="1118309782_0" startPos="0.00" endPos="0.20" friendlyPos="true" lines="Chakrapath Parikrama Chyamasingh to Ratnapark Changu-Ratnapark Kalanki-Pepsacola lagankhel - Naya Buspark(Ringroad)">
        <access lane="1090811371_0" pos="0.00" length="98.59" friendlyPos="1"/>
        <access lane="1132401300_0" pos="0.00" length="18.73" friendlyPos="1"/>
        <access lane="193289326_0" pos="0.00" length="32.52" friendlyPos="1"/>
        <access lane="215507255_0" pos="0.00" length="28.51" friendlyPos="1"/>
        <access lane="591355896_0" pos="0.20" length="17.16" friendlyPos="1"/>
    </busStop>
    <busStop id="5645760472" name="Koteshwar Stop" lane="193289327_0" startPos="389.92" endPos="414.92" friendlyPos="true" lines="11 12">
        <access lane="1090811371_0" pos="0.00" length="132.73" friendlyPos="1"/>
        <access lane="1132401300_0" pos="0.00" length="39.91" friendlyPos="1"/>
        <access lane="193289326_0" pos="0.00" length="26.61" friendlyPos="1"/>
        <access lane="215507255_0" pos="0.00" length="62.64" friendlyPos="1"/>
        <access lane="591355896_0" pos="0.00" length="19.64" friendlyPos="1"/>
    </busStop>
</additional>
