<?xml version="1.0" encoding="UTF-8"?>

<!-- generated on 2024-10-01 21:50:00.627892 by $Id: ptlines2flows.py v1_3_1+0313-ccb31df3eb jakob.erdmann@dlr.de 2019-09-02 13:26:32 +0200 $ v1_20_0+0002-343658e7c64
<configuration>
    <net-file value="E:\ACER\Downloads\rl-environment-main\rl-environment-main\2024-10-01-20-21-00\2024-10-01-21-49-55\osm.net.xml.gz"/>
    <ptlines-file value="E:\ACER\Downloads\rl-environment-main\rl-environment-main\2024-10-01-20-21-00\2024-10-01-21-49-55\osm_ptlines.xml"/>
    <ptstops-file value="E:\ACER\Downloads\rl-environment-main\rl-environment-main\2024-10-01-20-21-00\2024-10-01-21-49-55\osm_stops.add.xml"/>
    <output-file value="E:\ACER\Downloads\rl-environment-main\rl-environment-main\2024-10-01-20-21-00\2024-10-01-21-49-55\osm_pt.rou.xml"/>
    <stopinfos-file value="E:\ACER\Downloads\rl-environment-main\rl-environment-main\2024-10-01-20-21-00\2024-10-01-21-49-55\stopinfos.xml"/>
    <routes-file value="E:\ACER\Downloads\rl-environment-main\rl-environment-main\2024-10-01-20-21-00\2024-10-01-21-49-55\vehroutes.xml"/>
    <trips-file value="E:\ACER\Downloads\rl-environment-main\rl-environment-main\2024-10-01-20-21-00\2024-10-01-21-49-55\trips.trips.xml"/>
    <min-stops value="0"/>
    <extend-to-fringe value="True"/>
    <random-begin value="True"/>
    <seed value="42"/>
    <ignore-errors value="True"/>
    <vtype-prefix value="pt_"/>
    <verbose value="True"/>
</configuration>
-->

<routes xmlns:xsi="http://www.w3.org/2001/XMLSchema-instance" xsi:noNamespaceSchemaLocation="http://sumo.dlr.de/xsd/routes_file.xsd">
    <vType id="pt_bus" vClass="bus" speedFactor="0.95"/>
    <vType id="pt_tram" vClass="tram" speedFactor="1.0"/>
    <vType id="pt_train" vClass="rail"/>
    <vType id="pt_subway" vClass="subway"/>
    <vType id="pt_light_rail" vClass="rail_urban"/>
    <vType id="pt_monorail" vClass="rail_urban"/>
    <vType id="pt_trolleybus" vClass="bus" speedFactor="0.95"/>
    <vType id="pt_minibus" vClass="bus" speedFactor="0.95"/>
    <vType id="pt_share_taxi" vClass="taxi" speedFactor="0.95"/>
    <vType id="pt_aerialway" vClass="cable_car" length="2.5" width="2" personCapacity="4"/>
    <vType id="pt_ferry" vClass="ship"/>
    <trip id="0_bus_Chakrapath_Parikrama:0" type="pt_bus" depart="15.0" departLane="best" from="1118309782" to="416294069#1">
        <stop busStop="31228768" duration="30"/>  <!-- Koteshwar Stop;Koteshwar Chok -->
    </trip>
    <trip id="1_bus_Nepal_Yatayat:0" type="pt_bus" depart="15.0" departLane="best" from="1118309782" to="591357319">
        <stop busStop="31228768" duration="30"/>  <!-- Koteshwar Stop;Koteshwar Chok -->
    </trip>
    <trip id="2_bus_7:0" type="pt_bus" depart="17.0" departLane="best" from="194607856" to="1118309782">
        <stop busStop="2377002167" duration="30"/>  <!-- Jadibuti -->
        <stop busStop="31228768" duration="30"/>  <!-- Koteshwar Stop;Koteshwar Chok -->
    </trip>
    <trip id="3_bus_11:0" type="pt_bus" depart="52.0" departLane="best" from="591355894" to="231882049">
        <stop busStop="5645760472" duration="30"/>  <!-- Koteshwar Stop -->
    </trip>
    <trip id="4_bus_Chyamasingh_to_Ratnapark:0" type="pt_bus" depart="131.0" departLane="best" from="226834863#0" to="591357319">
        <stop busStop="31228768" duration="30"/>  <!-- Koteshwar Stop;Koteshwar Chok -->
    </trip>
    <trip id="5_bus_12:0" type="pt_bus" depart="133.0" departLane="best" from="591355894" to="231882049">
        <stop busStop="2377002167" duration="30"/>  <!-- Jadibuti -->
        <stop busStop="5645760472" duration="30"/>  <!-- Koteshwar Stop -->
    </trip>
    <trip id="6_bus_Changu-Ratnapark:0" type="pt_bus" depart="165.0" departLane="best" from="1118309782" to="591357319">
        <stop busStop="31228768" duration="30"/>  <!-- Koteshwar Stop;Koteshwar Chok -->
    </trip>
    <trip id="7_bus_Gothatar-Purano_Buspark:0" type="pt_bus" depart="253.0" departLane="best" from="1118309782" to="1118309782">
        <stop busStop="31228768" duration="30"/>  <!-- Koteshwar Stop;Koteshwar Chok -->
    </trip>
    <trip id="8_bus_kalanki-Balkumari:0" type="pt_bus" depart="303.0" departLane="best" from="1118309782" to="1118309782">
        <stop busStop="31228768" duration="30"/>  <!-- Koteshwar Stop;Koteshwar Chok -->
    </trip>
    <trip id="9_bus_Kalanki-Pepsacola:0" type="pt_bus" depart="383.0" departLane="best" from="1118309782" to="231882049">
        <stop busStop="31228768" duration="30"/>  <!-- Koteshwar Stop;Koteshwar Chok -->
        <stop busStop="2377002167" duration="30"/>  <!-- Jadibuti -->
    </trip>
    <trip id="10_bus_40:0" type="pt_bus" depart="406.0" departLane="best" from="1118309782" to="231882049">
        <stop busStop="31228768" duration="30"/>  <!-- Koteshwar Stop;Koteshwar Chok -->
        <stop busStop="2377002167" duration="30"/>  <!-- Jadibuti -->
    </trip>
    <trip id="11_bus_lagankhel_-_Naya_Buspark(Ringroad):0" type="pt_bus" depart="441.0" departLane="best" from="1118309782" to="193289326">
        <stop busStop="31228768" duration="30"/>  <!-- Koteshwar Stop;Koteshwar Chok -->
    </trip>
    <trip id="12_bus_Nepal_Yatayat:1" type="pt_bus" depart="535.0" departLane="best" from="1118309782" to="1118309782">
        <stop busStop="31228768" duration="30"/>  <!-- Koteshwar Stop;Koteshwar Chok -->
    </trip>
</routes>
