<?xml version="1.0" encoding="UTF-8"?>

<!-- generated on 2024-10-01 21:49:59 by Eclipse SUMO netconvert Version 1.20.0
<configuration xmlns:xsi="http://www.w3.org/2001/XMLSchema-instance" xsi:noNamespaceSchemaLocation="http://sumo.dlr.de/xsd/netconvertConfiguration.xsd">

    <input>
        <type-files value="${SUMO_HOME}/data/typemap/osmNetconvert.typ.xml,${SUMO_HOME}/data/typemap/osmNetconvertAerialway.typ.xml"/>
        <osm-files value="osm_bbox.osm.xml.gz"/>
    </input>

    <output>
        <output-file value="osm.net.xml.gz"/>
        <output.street-names value="true"/>
        <output.original-names value="true"/>
        <ptstop-output value="osm_stops.add.xml"/>
        <ptline-output value="osm_ptlines.xml"/>
    </output>

    <projection>
        <proj.utm value="true"/>
    </projection>

    <processing>
        <geometry.remove value="true"/>
        <roundabouts.guess value="true"/>
        <lefthand value="true"/>
    </processing>

    <tls_building>
        <tls.discard-simple value="true"/>
        <tls.join value="true"/>
        <tls.guess-signals value="true"/>
        <tls.default-type value="actuated"/>
    </tls_building>

    <ramp_guessing>
        <ramps.guess value="true"/>
    </ramp_guessing>

    <junctions>
        <junctions.join value="true"/>
        <junctions.corner-detail value="5"/>
    </junctions>

    <railway>
        <railway.topology.repair value="true"/>
    </railway>

</configuration>
-->

<net version="1.20" junctionCornerDetail="5" lefthand="true" limitTurnSpeed="5.50" xmlns:xsi="http://www.w3.org/2001/XMLSchema-instance" xsi:noNamespaceSchemaLocation="http://sumo.dlr.de/xsd/net_file.xsd">

    <location netOffset="-336828.58,-3062308.93" convBoundary="0.00,-0.00,659.93,934.20" origBoundary="85.345498,27.675199,85.352204,27.683595" projParameter="+proj=utm +zone=45 +ellps=WGS84 +datum=WGS84 +units=m +no_defs"/>

    <type id="highway.primary" priority="12" numLanes="2" speed="27.78" disallow="tram rail_urban rail rail_electric rail_fast ship container cable_car subway aircraft wheelchair scooter drone" oneway="0"/>
    <type id="highway.trunk" priority="13" numLanes="2" speed="27.78" disallow="pedestrian bicycle tram rail_urban rail rail_electric rail_fast ship container cable_car subway aircraft wheelchair scooter drone" oneway="0"/>
    <type id="highway.trunk_link" priority="8" numLanes="1" speed="22.22" disallow="pedestrian bicycle tram rail_urban rail rail_electric rail_fast ship container cable_car subway aircraft wheelchair scooter drone" oneway="0"/>

    <edge id=":1273503554_0" function="internal">
        <lane id=":1273503554_0_0" index="0" disallow="pedestrian bicycle tram rail_urban rail rail_electric rail_fast ship container cable_car subway aircraft wheelchair scooter drone" speed="19.44" length="9.60" shape="395.12,311.01 394.09,313.84 391.89,315.28 389.72,316.72 388.79,319.54"/>
        <lane id=":1273503554_0_1" index="1" disallow="pedestrian bicycle tram rail_urban rail rail_electric rail_fast ship container cable_car subway aircraft wheelchair scooter drone" speed="19.44" length="9.60" shape="395.12,311.01 394.59,313.60 393.49,315.24 392.42,316.88 391.99,319.46"/>
        <lane id=":1273503554_0_2" index="2" disallow="pedestrian bicycle tram rail_urban rail rail_electric rail_fast ship container cable_car subway aircraft wheelchair scooter drone" speed="19.44" length="9.60" shape="395.12,311.01 395.19,319.39"/>
    </edge>
    <edge id=":1273503554_3" function="internal">
        <lane id=":1273503554_3_0" index="0" disallow="pedestrian bicycle tram rail_urban rail rail_electric rail_fast ship container cable_car subway aircraft wheelchair scooter drone" speed="16.67" length="8.15" width="4.50" shape="399.62,311.05 399.54,319.28"/>
        <lane id=":1273503554_3_1" index="1" disallow="pedestrian bicycle tram rail_urban rail rail_electric rail_fast ship container cable_car subway aircraft wheelchair scooter drone" speed="16.67" length="8.15" width="4.50" shape="404.12,311.10 404.04,319.17"/>
    </edge>
    <edge id=":1942462680_0" function="internal">
        <lane id=":1942462680_0_0" index="0" disallow="pedestrian bicycle tram rail_urban rail rail_electric rail_fast ship container cable_car subway aircraft wheelchair scooter drone" speed="25.00" length="10.77" width="3.50" shape="339.34,352.92 337.54,351.02 337.85,348.10 338.18,344.92 336.41,342.22"/>
        <lane id=":1942462680_0_1" index="1" disallow="pedestrian bicycle tram rail_urban rail rail_electric rail_fast ship container cable_car subway aircraft wheelchair scooter drone" speed="25.00" length="10.77" width="3.50" shape="339.34,352.92 337.31,351.46 336.76,349.44 336.31,347.22 334.54,345.18"/>
    </edge>
    <edge id=":1942462680_2" function="internal">
        <lane id=":1942462680_2_0" index="0" disallow="pedestrian bicycle tram rail_urban rail rail_electric rail_fast ship container cable_car subway aircraft wheelchair scooter drone" speed="27.78" length="9.20" width="3.50" shape="341.43,349.96 339.63,347.93 338.99,345.98 338.32,344.08 336.41,342.22"/>
        <lane id=":1942462680_2_1" index="1" disallow="pedestrian bicycle tram rail_urban rail rail_electric rail_fast ship container cable_car subway aircraft wheelchair scooter drone" speed="27.78" length="9.20" width="3.50" shape="339.41,352.82 337.66,350.83 337.05,348.89 336.41,347.01 334.54,345.18"/>
        <lane id=":1942462680_2_2" index="2" disallow="pedestrian bicycle tram rail_urban rail rail_electric rail_fast ship container cable_car subway aircraft wheelchair scooter drone" speed="27.78" length="9.20" width="3.50" shape="337.40,355.69 335.69,353.72 335.11,351.81 334.51,349.95 332.68,348.15"/>
        <lane id=":1942462680_2_3" index="3" disallow="pedestrian bicycle tram rail_urban rail rail_electric rail_fast ship container cable_car subway aircraft wheelchair scooter drone" speed="27.78" length="9.20" width="3.50" shape="335.39,358.55 333.72,356.62 333.18,354.73 332.60,352.89 330.82,351.11"/>
    </edge>
    <edge id=":2051114390_0" function="internal">
        <lane id=":2051114390_0_0" index="0" disallow="pedestrian bicycle tram rail_urban rail rail_electric rail_fast ship container cable_car subway aircraft wheelchair scooter drone" speed="16.67" length="27.46" width="4.50" shape="418.78,395.13 420.04,367.53"/>
        <lane id=":2051114390_0_1" index="1" disallow="pedestrian bicycle tram rail_urban rail rail_electric rail_fast ship container cable_car subway aircraft wheelchair scooter drone" speed="16.67" length="27.46" width="4.50" shape="414.28,394.91 415.54,367.66"/>
    </edge>
    <edge id=":2051114390_2" function="internal">
        <lane id=":2051114390_2_0" index="0" disallow="pedestrian bicycle tram rail_urban rail rail_electric rail_fast ship container cable_car subway aircraft wheelchair scooter drone" speed="13.89" length="25.90" width="4.50" shape="410.83,392.36 413.61,385.88 416.70,380.13 419.15,374.29 420.04,367.53"/>
        <lane id=":2051114390_2_1" index="1" disallow="pedestrian bicycle tram rail_urban rail rail_electric rail_fast ship container cable_car subway aircraft wheelchair scooter drone" speed="13.89" length="25.90" width="4.50" shape="407.82,391.27 410.37,384.97 412.95,379.65 414.89,374.23 415.54,367.66"/>
    </edge>
    <edge id=":226834863#0-AddedOffRampNode_0" function="internal">
        <lane id=":226834863#0-AddedOffRampNode_0_0" index="0" disallow="pedestrian bicycle tram rail_urban rail rail_electric rail_fast ship container cable_car subway aircraft wheelchair scooter drone" speed="16.67" length="8.51" width="4.50" shape="406.98,211.19 405.61,213.49 403.76,214.56 401.97,215.65 400.75,217.99"/>
        <lane id=":226834863#0-AddedOffRampNode_0_1" index="1" disallow="pedestrian bicycle tram rail_urban rail rail_electric rail_fast ship container cable_car subway aircraft wheelchair scooter drone" speed="16.67" length="8.51" width="4.50" shape="406.98,211.19 405.14,218.97"/>
        <lane id=":226834863#0-AddedOffRampNode_0_2" index="2" disallow="pedestrian bicycle tram rail_urban rail rail_electric rail_fast ship container cable_car subway aircraft wheelchair scooter drone" speed="16.67" length="8.51" width="4.50" shape="411.38,212.18 409.53,219.96"/>
    </edge>
    <edge id=":2377002167_0" function="internal">
        <lane id=":2377002167_0_0" index="0" disallow="pedestrian bicycle tram rail_urban rail rail_electric rail_fast ship container cable_car subway aircraft wheelchair scooter drone" speed="19.44" length="8.34" width="3.00" shape="589.85,30.22 592.11,29.75 593.77,29.97 595.44,30.25 597.76,29.90"/>
        <lane id=":2377002167_0_1" index="1" disallow="pedestrian bicycle tram rail_urban rail rail_electric rail_fast ship container cable_car subway aircraft wheelchair scooter drone" speed="19.44" length="8.34" width="3.00" shape="588.26,26.01 590.74,25.70 592.54,26.42 594.35,27.19 596.88,27.03"/>
        <lane id=":2377002167_0_2" index="2" disallow="pedestrian bicycle tram rail_urban rail rail_electric rail_fast ship container cable_car subway aircraft wheelchair scooter drone" speed="19.44" length="8.34" width="3.00" shape="588.26,26.01 590.51,25.29 592.10,25.00 593.71,24.75 596.00,24.17"/>
        <lane id=":2377002167_0_3" index="3" disallow="pedestrian bicycle tram rail_urban rail rail_electric rail_fast ship container cable_car subway aircraft wheelchair scooter drone" speed="19.44" length="8.34" width="3.00" shape="588.26,26.01 590.42,24.82 591.66,23.56 592.92,22.34 595.12,21.30"/>
    </edge>
    <edge id=":3045212619_0" function="internal">
        <lane id=":3045212619_0_0" index="0" disallow="pedestrian bicycle tram rail_urban rail rail_electric rail_fast ship container cable_car subway aircraft wheelchair scooter drone" speed="11.11" length="38.33" width="4.50" shape="398.43,878.16 400.84,839.96"/>
        <lane id=":3045212619_0_1" index="1" disallow="pedestrian bicycle tram rail_urban rail rail_electric rail_fast ship container cable_car subway aircraft wheelchair scooter drone" speed="11.11" length="38.33" width="4.50" shape="396.43,878.11 396.34,839.74"/>
    </edge>
    <edge id=":3045212619_2" function="internal">
        <lane id=":3045212619_2_0" index="0" disallow="pedestrian bicycle tram rail_urban rail rail_electric rail_fast ship container cable_car subway aircraft wheelchair scooter drone" speed="11.11" length="38.16" width="4.50" shape="392.87,877.57 395.17,869.03 397.67,858.90 399.76,848.69 400.84,839.96"/>
        <lane id=":3045212619_2_1" index="1" disallow="pedestrian bicycle tram rail_urban rail rail_electric rail_fast ship container cable_car subway aircraft wheelchair scooter drone" speed="11.11" length="38.16" width="4.50" shape="388.45,876.67 390.74,868.24 393.21,858.34 395.28,848.37 396.34,839.74"/>
    </edge>
    <edge id=":31228768_0" function="internal">
        <lane id=":31228768_0_0" index="0" disallow="pedestrian bicycle tram rail_urban rail rail_electric rail_fast ship container cable_car subway aircraft wheelchair scooter drone" speed="16.67" length="27.73" width="3.50" shape="398.97,385.64 399.82,414.25"/>
        <lane id=":31228768_0_1" index="1" disallow="pedestrian bicycle tram rail_urban rail rail_electric rail_fast ship container cable_car subway aircraft wheelchair scooter drone" speed="16.67" length="27.73" width="3.50" shape="403.45,387.45 403.32,414.29"/>
    </edge>
    <edge id=":31228768_2" function="internal">
        <lane id=":31228768_2_0" index="0" disallow="pedestrian bicycle tram rail_urban rail rail_electric rail_fast ship container cable_car subway aircraft wheelchair scooter drone" speed="4.95" length="8.59" shape="403.45,387.45 403.03,390.06 403.60,391.60 405.18,392.07 407.76,391.46"/>
    </edge>
    <edge id=":31228768_3" function="internal">
        <lane id=":31228768_3_0" index="0" disallow="bicycle tram rail_urban rail rail_electric rail_fast ship container cable_car subway aircraft wheelchair scooter drone" speed="19.45" length="28.60" width="3.50" shape="412.13,406.00 406.33,399.37 402.03,395.12 397.29,391.34 390.19,386.10"/>
        <lane id=":31228768_3_1" index="1" disallow="bicycle tram rail_urban rail rail_electric rail_fast ship container cable_car subway aircraft wheelchair scooter drone" speed="19.45" length="28.60" width="3.50" shape="409.69,408.07 404.01,401.65 399.75,397.59 395.06,393.99 388.11,388.92"/>
        <lane id=":31228768_3_2" index="2" disallow="bicycle tram rail_urban rail rail_electric rail_fast ship container cable_car subway aircraft wheelchair scooter drone" speed="19.45" length="28.60" width="3.50" shape="407.26,410.14 401.69,403.93 397.46,400.06 392.83,396.63 386.03,391.73"/>
        <lane id=":31228768_3_3" index="3" disallow="bicycle tram rail_urban rail rail_electric rail_fast ship container cable_car subway aircraft wheelchair scooter drone" speed="19.45" length="28.60" width="3.50" shape="404.82,412.22 399.37,406.20 395.18,402.52 390.60,399.27 383.94,394.54"/>
    </edge>
    <edge id=":31228768_7" function="internal">
        <lane id=":31228768_7_0" index="0" disallow="pedestrian bicycle tram rail_urban rail rail_electric rail_fast ship container cable_car subway aircraft wheelchair scooter drone" speed="3.74" length="3.76" width="3.50" shape="404.82,412.22 404.18,411.71 403.72,411.89 403.44,412.75 403.32,414.29"/>
    </edge>
    <edge id=":31228768_8" function="internal">
        <lane id=":31228768_8_0" index="0" disallow="pedestrian bicycle tram rail_urban rail rail_electric rail_fast ship container cable_car subway aircraft wheelchair scooter drone" speed="10.25" length="23.37" width="3.50" shape="383.88,400.80 390.92,402.07 395.92,404.73 398.89,408.79 399.82,414.25"/>
    </edge>
    <edge id=":31228768_9" function="internal">
        <lane id=":31228768_9_0" index="0" disallow="pedestrian bicycle tram rail_urban rail rail_electric rail_fast ship container cable_car subway aircraft wheelchair scooter drone" speed="12.53" length="29.90" shape="383.88,400.80 394.43,400.92 402.42,399.58 407.87,396.79 410.76,392.55"/>
        <lane id=":31228768_9_1" index="1" disallow="pedestrian bicycle tram rail_urban rail rail_electric rail_fast ship container cable_car subway aircraft wheelchair scooter drone" speed="11.82" length="26.56" shape="384.01,399.06 393.29,399.13 400.34,397.89 405.16,395.34 407.76,391.46"/>
    </edge>
    <edge id=":31228768_11" function="internal">
        <lane id=":31228768_11_0" index="0" disallow="pedestrian bicycle tram rail_urban rail rail_electric rail_fast ship container cable_car subway aircraft wheelchair scooter drone" speed="6.26" length="15.46" width="3.50" shape="384.01,399.06 389.08,398.95 391.10,397.69 390.09,395.29 386.03,391.73"/>
        <lane id=":31228768_11_1" index="1" disallow="pedestrian bicycle tram rail_urban rail rail_electric rail_fast ship container cable_car subway aircraft wheelchair scooter drone" speed="4.80" length="8.66" width="3.50" shape="384.01,399.06 386.51,398.95 387.33,398.16 386.47,396.69 383.94,394.54"/>
    </edge>
    <edge id=":5310868242_0" function="internal">
        <lane id=":5310868242_0_0" index="0" disallow="pedestrian bicycle tram rail_urban rail rail_electric rail_fast ship container cable_car subway aircraft wheelchair scooter drone" speed="11.02" length="3.67" shape="361.77,353.26 360.72,353.00 360.01,352.74 359.37,352.35 358.50,351.70"/>
        <lane id=":5310868242_0_1" index="1" disallow="pedestrian bicycle tram rail_urban rail rail_electric rail_fast ship container cable_car subway aircraft wheelchair scooter drone" speed="12.89" length="5.07" shape="361.04,356.37 359.59,356.01 358.62,355.66 357.73,355.13 356.53,354.22"/>
    </edge>
    <edge id=":5310868242_2" function="internal">
        <lane id=":5310868242_2_0" index="0" disallow="pedestrian bicycle tram rail_urban rail rail_electric rail_fast ship container cable_car subway aircraft wheelchair scooter drone" speed="22.22" length="4.71" shape="360.32,359.49 355.78,358.22"/>
    </edge>
    <edge id=":5645760470_0" function="internal">
        <lane id=":5645760470_0_0" index="0" disallow="pedestrian bicycle tram rail_urban rail rail_electric rail_fast ship container cable_car subway aircraft wheelchair scooter drone" speed="19.45" length="0.26" width="4.50" shape="385.30,826.37 385.29,826.50"/>
        <lane id=":5645760470_0_1" index="1" disallow="pedestrian bicycle tram rail_urban rail rail_electric rail_fast ship container cable_car subway aircraft wheelchair scooter drone" speed="19.45" length="0.26" width="4.50" shape="389.78,826.83 389.73,827.22"/>
    </edge>
    <edge id=":5645760472_0" function="internal">
        <lane id=":5645760472_0_0" index="0" disallow="pedestrian bicycle tram rail_urban rail rail_electric rail_fast ship container cable_car subway aircraft wheelchair scooter drone" speed="13.89" length="26.07" width="4.50" shape="418.72,425.44 418.77,399.40"/>
        <lane id=":5645760472_0_1" index="1" disallow="pedestrian bicycle tram rail_urban rail rail_electric rail_fast ship container cable_car subway aircraft wheelchair scooter drone" speed="13.89" length="26.07" width="4.50" shape="414.22,425.50 414.27,399.39"/>
    </edge>
    <edge id=":5645760472_2" function="internal">
        <lane id=":5645760472_2_0" index="0" disallow="pedestrian bicycle tram rail_urban rail rail_electric rail_fast ship container cable_car subway aircraft wheelchair scooter drone" speed="11.11" length="20.34" shape="414.22,425.50 414.90,419.42 415.70,414.96 415.26,410.93 412.26,406.15"/>
        <lane id=":5645760472_2_1" index="1" disallow="pedestrian bicycle tram rail_urban rail rail_electric rail_fast ship container cable_car subway aircraft wheelchair scooter drone" speed="11.11" length="18.54" shape="414.22,425.50 414.44,420.00 414.27,416.07 412.98,412.53 409.82,408.22"/>
        <lane id=":5645760472_2_2" index="2" disallow="pedestrian bicycle tram rail_urban rail rail_electric rail_fast ship container cable_car subway aircraft wheelchair scooter drone" speed="11.11" length="17.34" shape="414.22,425.50 414.00,420.50 412.91,417.15 410.76,414.18 407.39,410.30"/>
        <lane id=":5645760472_2_3" index="3" disallow="pedestrian bicycle tram rail_urban rail rail_electric rail_fast ship container cable_car subway aircraft wheelchair scooter drone" speed="11.11" length="16.85" shape="414.22,425.50 413.59,420.92 411.61,418.22 408.62,415.87 404.95,412.37"/>
    </edge>
    <edge id=":5645760472_6" function="internal">
        <lane id=":5645760472_6_0" index="0" disallow="pedestrian bicycle tram rail_urban rail rail_electric rail_fast ship container cable_car subway aircraft wheelchair scooter drone" speed="10.93" length="28.34" width="4.50" shape="404.24,419.56 410.59,418.56 415.12,414.86 417.85,408.48 418.77,399.40"/>
        <lane id=":5645760472_6_1" index="1" disallow="pedestrian bicycle tram rail_urban rail rail_electric rail_fast ship container cable_car subway aircraft wheelchair scooter drone" speed="9.70" length="22.09" width="4.50" shape="404.39,416.36 408.70,415.48 411.79,412.35 413.64,406.99 414.27,399.39"/>
    </edge>
    <edge id=":6275508133_0" function="internal">
        <lane id=":6275508133_0_0" index="0" disallow="tram rail_urban rail rail_electric rail_fast ship container cable_car subway aircraft wheelchair scooter drone" speed="27.78" length="2.08" width="3.50" shape="325.52,325.95 323.61,324.27"/>
        <lane id=":6275508133_0_1" index="1" disallow="tram rail_urban rail rail_electric rail_fast ship container cable_car subway aircraft wheelchair scooter drone" speed="27.78" length="2.08" width="3.50" shape="322.82,327.90 322.43,327.63 322.15,327.47 321.86,327.31 321.47,327.03"/>
    </edge>
    <edge id=":6275508133_2" function="internal">
        <lane id=":6275508133_2_0" index="0" disallow="tram rail_urban rail rail_electric rail_fast ship container cable_car subway aircraft wheelchair scooter drone" speed="27.78" length="0.50" width="3.50" shape="319.67,330.16 319.59,330.04 319.52,329.96 319.44,329.90 319.33,329.80"/>
        <lane id=":6275508133_2_1" index="1" disallow="tram rail_urban rail rail_electric rail_fast ship container cable_car subway aircraft wheelchair scooter drone" speed="27.78" length="0.50" width="3.50" shape="316.84,332.22 317.19,332.57"/>
    </edge>
    <edge id=":6275508135_0" function="internal">
        <lane id=":6275508135_0_0" index="0" disallow="pedestrian bicycle tram rail_urban rail rail_electric rail_fast ship container cable_car subway aircraft wheelchair scooter drone" speed="6.00" length="2.78" width="3.50" shape="335.74,341.80 333.14,340.82"/>
        <lane id=":6275508135_0_1" index="1" disallow="pedestrian bicycle tram rail_urban rail rail_electric rail_fast ship container cable_car subway aircraft wheelchair scooter drone" speed="27.78" length="0.51" width="3.50" shape="333.87,344.76 333.80,344.26"/>
    </edge>
    <edge id=":6275508135_2" function="internal">
        <lane id=":6275508135_2_0" index="0" disallow="pedestrian bicycle tram rail_urban rail rail_electric rail_fast ship container cable_car subway aircraft wheelchair scooter drone" speed="27.78" length="2.88" width="3.50" shape="332.01,347.73 329.66,346.19"/>
        <lane id=":6275508135_2_1" index="1" disallow="pedestrian bicycle tram rail_urban rail rail_electric rail_fast ship container cable_car subway aircraft wheelchair scooter drone" speed="27.78" length="2.88" width="3.50" shape="330.15,350.69 327.69,349.08"/>
    </edge>
    <edge id=":6275508137_0" function="internal">
        <lane id=":6275508137_0_0" index="0" disallow="pedestrian bicycle tram rail_urban rail rail_electric rail_fast ship container cable_car subway aircraft wheelchair scooter drone" speed="13.89" length="8.28" width="4.50" shape="399.82,414.45 399.25,422.73"/>
        <lane id=":6275508137_0_1" index="1" disallow="pedestrian bicycle tram rail_urban rail rail_electric rail_fast ship container cable_car subway aircraft wheelchair scooter drone" speed="13.89" length="8.28" width="4.50" shape="403.32,414.49 403.75,422.75"/>
    </edge>
    <edge id=":6275508137_2" function="internal">
        <lane id=":6275508137_2_0" index="0" disallow="pedestrian bicycle tram rail_urban rail rail_electric rail_fast ship container cable_car subway aircraft wheelchair scooter drone" speed="3.87" length="2.35" shape="403.32,414.49 403.31,415.20 403.38,415.78 403.63,416.18 404.19,416.35"/>
    </edge>
    <edge id=":6275508137_3" function="internal">
        <lane id=":6275508137_3_0" index="0" disallow="pedestrian bicycle tram rail_urban rail rail_electric rail_fast ship container cable_car subway aircraft wheelchair scooter drone" speed="10.68" length="13.14" width="4.50" shape="395.00,412.00 396.88,414.11 398.21,416.60 399.00,419.47 399.25,422.73"/>
        <lane id=":6275508137_3_1" index="1" disallow="pedestrian bicycle tram rail_urban rail rail_electric rail_fast ship container cable_car subway aircraft wheelchair scooter drone" speed="11.74" length="13.14" width="4.50" shape="396.33,410.84 399.59,414.08 401.91,417.15 403.30,420.04 403.75,422.75"/>
    </edge>
    <edge id=":6275508137_5" function="internal">
        <lane id=":6275508137_5_0" index="0" disallow="pedestrian bicycle tram rail_urban rail rail_electric rail_fast ship container cable_car subway aircraft wheelchair scooter drone" speed="12.79" length="12.32" shape="396.33,410.84 398.55,413.80 399.63,416.55 400.99,418.62 404.04,419.55"/>
    </edge>
    <edge id=":6275508140_0" function="internal">
        <lane id=":6275508140_0_0" index="0" disallow="pedestrian bicycle tram rail_urban rail rail_electric rail_fast ship container cable_car subway aircraft wheelchair scooter drone" speed="27.78" length="56.13" width="1.75" shape="335.87,376.85 345.61,383.07 359.74,391.46 374.06,399.53 384.33,404.82"/>
        <lane id=":6275508140_0_1" index="1" disallow="pedestrian bicycle tram rail_urban rail rail_electric rail_fast ship container cable_car subway aircraft wheelchair scooter drone" speed="27.78" length="56.13" width="1.75" shape="337.27,373.55 346.90,380.04 360.80,389.01 374.88,397.67 385.05,403.23"/>
    </edge>
    <edge id=":6275508140_2" function="internal">
        <lane id=":6275508140_2_0" index="0" disallow="pedestrian bicycle tram rail_urban rail rail_electric rail_fast ship container cable_car subway aircraft wheelchair scooter drone" speed="27.78" length="54.08" width="1.75" shape="337.27,373.55 346.56,380.14 359.80,389.07 373.37,397.04 383.69,400.79"/>
    </edge>
    <edge id=":6275508140_3" function="internal">
        <lane id=":6275508140_3_0" index="0" disallow="pedestrian bicycle tram rail_urban rail rail_electric rail_fast ship container cable_car subway aircraft wheelchair scooter drone" speed="27.78" length="55.69" width="1.75" shape="339.47,370.76 348.54,378.07 361.45,388.53 374.59,398.62 384.33,404.82"/>
        <lane id=":6275508140_3_1" index="1" disallow="pedestrian bicycle tram rail_urban rail rail_electric rail_fast ship container cable_car subway aircraft wheelchair scooter drone" speed="27.78" length="55.69" width="1.75" shape="342.40,368.59 351.13,376.00 363.28,386.66 375.65,396.94 385.05,403.23"/>
    </edge>
    <edge id=":6275508140_5" function="internal">
        <lane id=":6275508140_5_0" index="0" disallow="pedestrian bicycle tram rail_urban rail rail_electric rail_fast ship container cable_car subway aircraft wheelchair scooter drone" speed="27.78" length="51.73" width="1.75" shape="342.40,368.59 350.82,375.82 362.34,385.84 374.25,394.84 383.81,399.04"/>
    </edge>
    <edge id=":670112944#1-AddedOnRampNode_0" function="internal">
        <lane id=":670112944#1-AddedOnRampNode_0_0" index="0" disallow="tram rail_urban rail rail_electric rail_fast ship container cable_car subway aircraft wheelchair scooter drone" speed="27.78" length="8.00" width="3.50" shape="241.13,274.03 234.61,269.39"/>
        <lane id=":670112944#1-AddedOnRampNode_0_1" index="1" disallow="tram rail_urban rail rail_electric rail_fast ship container cable_car subway aircraft wheelchair scooter drone" speed="27.78" length="8.00" width="3.50" shape="239.10,276.88 232.58,272.24"/>
    </edge>

    <edge id="1090811371" from="5310868242" to="6275508133" priority="12" type="highway.primary" spreadType="center" shape="359.26,354.32 322.54,325.65">
        <lane id="1090811371_0" index="0" disallow="tram rail_urban rail rail_electric rail_fast ship container cable_car subway aircraft wheelchair scooter drone" speed="27.78" length="42.30" shape="358.50,351.70 325.52,325.95">
            <param key="origId" value="1090811371"/>
        </lane>
        <lane id="1090811371_1" index="1" disallow="tram rail_urban rail rail_electric rail_fast ship container cable_car subway aircraft wheelchair scooter drone" speed="27.78" length="42.30" shape="356.53,354.22 322.82,327.90">
            <param key="origId" value="1090811371"/>
        </lane>
    </edge>
    <edge id="1118309782" from="31228768" to="6275508137" name="Araniko Highway" priority="13" type="highway.trunk" spreadType="center">
        <lane id="1118309782_0" index="0" disallow="pedestrian bicycle tram rail_urban rail rail_electric rail_fast ship container cable_car subway aircraft wheelchair scooter drone" speed="16.67" length="0.20" width="3.50" shape="399.82,414.25 399.82,414.45">
            <param key="origId" value="1118309782"/>
        </lane>
        <lane id="1118309782_1" index="1" disallow="pedestrian bicycle tram rail_urban rail rail_electric rail_fast ship container cable_car subway aircraft wheelchair scooter drone" speed="16.67" length="0.20" width="3.50" shape="403.32,414.29 403.32,414.49">
            <param key="origId" value="1118309782"/>
        </lane>
        <param key="ref" value="NH39"/>
    </edge>
    <edge id="111859876#0" from="1273503554" to="5310868242" priority="8" type="highway.trunk_link" spreadType="center" shape="391.88,315.10 392.63,345.51 389.55,350.50 385.47,354.07 380.96,356.54 374.94,358.23 368.65,358.17 364.13,357.09 358.90,355.87">
        <lane id="111859876#0_0" index="0" disallow="pedestrian bicycle tram rail_urban rail rail_electric rail_fast ship container cable_car subway aircraft wheelchair scooter drone" speed="22.22" length="62.84" shape="388.79,319.54 389.41,344.64 387.08,348.41 383.63,351.43 379.74,353.56 374.52,355.02 369.04,354.98 364.87,353.98 361.77,353.26">
            <param key="origId" value="111859876"/>
        </lane>
        <lane id="111859876#0_1" index="1" disallow="pedestrian bicycle tram rail_urban rail rail_electric rail_fast ship container cable_car subway aircraft wheelchair scooter drone" speed="22.22" length="62.84" shape="391.99,319.46 392.63,345.51 389.55,350.50 385.47,354.07 380.96,356.54 374.94,358.23 368.65,358.17 364.13,357.09 361.04,356.37">
            <param key="origId" value="111859876"/>
        </lane>
        <lane id="111859876#0_2" index="2" disallow="pedestrian bicycle tram rail_urban rail rail_electric rail_fast ship container cable_car subway aircraft wheelchair scooter drone" speed="22.22" length="62.84" shape="395.19,319.39 395.85,346.39 392.02,352.60 387.31,356.71 382.18,359.52 375.37,361.43 368.25,361.37 363.40,360.21 360.32,359.49">
            <param key="origId" value="111859876"/>
        </lane>
    </edge>
    <edge id="111859876#1" from="5310868242" to="1942462680" priority="8" type="highway.trunk_link" spreadType="center">
        <lane id="111859876#1_0" index="0" disallow="pedestrian bicycle tram rail_urban rail rail_electric rail_fast ship container cable_car subway aircraft wheelchair scooter drone" speed="22.22" length="17.27" shape="355.78,358.22 339.34,352.92">
            <param key="origId" value="111859876"/>
        </lane>
    </edge>
    <edge id="1126627065" from="10920911260" to="6275508140" priority="12" type="highway.primary" spreadType="center" shape="8.95,142.28 59.89,177.94 97.89,205.01 136.54,232.84 174.58,260.23 197.32,276.60 253.91,316.81 365.53,395.65 374.05,399.23">